McPAT (version 1.0 of Aug, 2013) is computing the target processor...
 
Warning: icache array structure cannot satisfy latency constraint.
Warning: icache array structure cannot satisfy latency constraint.
Warning: icache array structure cannot satisfy latency constraint.
Warning: icache array structure cannot satisfy latency constraint.
Warning: icache array structure cannot satisfy latency constraint.
Warning: icache array structure cannot satisfy latency constraint.
Warning: icache array structure cannot satisfy latency constraint.
Warning: icache array structure cannot satisfy latency constraint.
Warning: icache array structure cannot satisfy latency constraint.
Warning: icache array structure cannot satisfy latency constraint.
Warning: icache array structure cannot satisfy latency constraint.
Warning: icache array structure cannot satisfy latency constraint.
Warning: icache array structure cannot satisfy latency constraint.
Warning: icache array structure cannot satisfy latency constraint.
Warning: icache array structure cannot satisfy latency constraint.
Warning: icache array structure cannot satisfy latency constraint.
Warning: icache array structure cannot satisfy latency constraint.
Warning: icache array structure cannot satisfy latency constraint.
Warning: icache array structure cannot satisfy latency constraint.
Warning: icache array structure cannot satisfy latency constraint.
Warning: icache array structure cannot satisfy latency constraint.
Warning: icache array structure cannot satisfy latency constraint.
Warning: icache array structure cannot satisfy latency constraint.
Warning: icache array structure cannot satisfy latency constraint.
Warning: icache array structure cannot satisfy latency constraint.
Warning: icache array structure cannot satisfy latency constraint.
Warning: icache array structure cannot satisfy latency constraint.
Warning: icache array structure cannot satisfy latency constraint.
Warning: icache array structure cannot satisfy latency constraint.
Warning: icache array structure cannot satisfy latency constraint.
Warning: icache array structure cannot satisfy latency constraint.
Warning: icache array structure cannot satisfy latency constraint.

McPAT (version 1.0 of Aug, 2013) results  (current print level is 5)
*****************************************************************************************
  Technology 32 nm
  Using Long Channel Devices When Appropriate
  Interconnect metal projection= aggressive interconnect technology projection
  Core clock Rate(MHz) 2000

*****************************************************************************************
Processor: 
  Area = 445.969 mm^2
  Peak Power = 254.755 W
  Total Leakage = 52.6516 W
  Peak Dynamic = 202.103 W
  Subthreshold Leakage = 38.5969 W
  Subthreshold Leakage with power gating = 14.9826 W
  Gate Leakage = 14.0547 W
  Runtime Dynamic = 21.6984 W

  Total Cores: 32 cores 
  Device Type= ITRS high performance device type
    Area = 406.281 mm^2
    Peak Dynamic = 202.08 W
    Subthreshold Leakage = 36.6427 W
    Subthreshold Leakage with power gating = 13.807 W
    Gate Leakage = 13.7959 W
    Runtime Dynamic = 21.6819 W

  Total L2s: 
  Device Type= ITRS high performance device type
    Area = 39.6008 mm^2
    Peak Dynamic = 0.0199949 W
    Subthreshold Leakage = 1.95275 W
    Subthreshold Leakage with power gating = 0.948184 W
    Gate Leakage = 0.257734 W
    Runtime Dynamic = 0.012636 W

  Total NoCs (Network/Bus): 
  Device Type= ITRS high performance device type
    Area = 0.0870126 mm^2
    Peak Dynamic = 0.00304641 W
    Subthreshold Leakage = 0.00149161 W
    Subthreshold Leakage with power gating = 0.000850216 W
    Gate Leakage = 0.00102695 W
    Runtime Dynamic = 0.00384587 W

*****************************************************************************************
Core:
      Area = 12.6963 mm^2
      Peak Dynamic = 11.2047 W
      Subthreshold Leakage = 1.14508 W
      Subthreshold Leakage with power gating = 0.431469 W
      Gate Leakage = 0.431123 W
      Runtime Dynamic = 3.28874 W

      Instruction Fetch Unit:
        Area = 3.04058 mm^2
        Peak Dynamic = 4.25113 W
        Subthreshold Leakage = 0.226888 W
        Subthreshold Leakage with power gating = 0.0933342 W
        Gate Leakage = 0.082348 W
        Runtime Dynamic = 0.480585 W

          Instruction Cache:
            Area = 1.60147 mm^2
            Peak Dynamic = 3.15196 W
            Subthreshold Leakage = 0.093335 W
            Subthreshold Leakage with power gating = 0.044301 W
            Gate Leakage = 0.042566 W
            Runtime Dynamic = 0.199889 W

          Branch Target Buffer:
            Area = 0.397072 mm^2
            Peak Dynamic = 0.0840866 W
            Subthreshold Leakage = 0.02173 W
            Subthreshold Leakage with power gating = 0.0105914 W
            Gate Leakage = 0.00551055 W
            Runtime Dynamic = 0.0258831 W

          Branch Predictor:
            Area = 0.0686002 mm^2
            Peak Dynamic = 0.0275933 W
            Subthreshold Leakage = 0.00468696 W
            Subthreshold Leakage with power gating = 0.00225328 W
            Gate Leakage = 0.00101062 W
            Runtime Dynamic = 0.0087842 W

              Global Predictor:
                Area = 0.0218979 mm^2
                Peak Dynamic = 0.0077921 W
                Subthreshold Leakage = 0.00178236 W
                Subthreshold Leakage with power gating = 0.000855551 W
                Gate Leakage = 0.000370196 W
                Runtime Dynamic = 0.00273397 W

              Local Predictor:
              L1_Local Predictor:
                Area = 0.0128884 mm^2
                Peak Dynamic = 0.00653673 W
                Subthreshold Leakage = 0.000903617 W
                Subthreshold Leakage with power gating = 0.000433877 W
                Gate Leakage = 0.000207902 W
                Runtime Dynamic = 0.00239771 W

              L2_Local Predictor:
                Area = 0.00661857 mm^2
                Peak Dynamic = 0.00333484 W
                Subthreshold Leakage = 0.000457985 W
                Subthreshold Leakage with power gating = 0.00021904 W
                Gate Leakage = 0.000109414 W
                Runtime Dynamic = 0.00122338 W

              Chooser:
                Area = 0.0218979 mm^2
                Peak Dynamic = 0.0077921 W
                Subthreshold Leakage = 0.00178236 W
                Subthreshold Leakage with power gating = 0.000855551 W
                Gate Leakage = 0.000370196 W
                Runtime Dynamic = 0.00273397 W

              RAS:
                Area = 0.00529751 mm^2
                Peak Dynamic = 0.00547237 W
                Subthreshold Leakage = 0.000218626 W
                Subthreshold Leakage with power gating = 0.000108298 W
                Gate Leakage = 6.23254e-05 W
                Runtime Dynamic = 0.000918556 W

          Instruction Buffer:
            Area = 0.0111146 mm^2
            Peak Dynamic = 0.290305 W
            Subthreshold Leakage = 0.000365712 W
            Subthreshold Leakage with power gating = 0.000153616 W
            Gate Leakage = 9.42121e-05 W
            Runtime Dynamic = 0.0626829 W

          Instruction Decoder:
            Area = 0.939544 mm^2
            Peak Dynamic = 0.566091 W
            Subthreshold Leakage = 0.102165 W
            Subthreshold Leakage with power gating = 0.0344807 W
            Gate Leakage = 0.028867 W
            Runtime Dynamic = 0.183346 W

      Renaming Unit:
        Area = 0.187354 mm^2
        Peak Dynamic = 2.14888 W
        Subthreshold Leakage = 0.0176949 W
        Subthreshold Leakage with power gating = 0.00901078 W
        Gate Leakage = 0.0121236 W
        Runtime Dynamic = 0.128761 W

          Int Front End RAT:
            Area = 0.0583904 mm^2
            Peak Dynamic = 0.386173 W
            Subthreshold Leakage = 0.00151853 W
            Subthreshold Leakage with power gating = 0.000865565 W
            Gate Leakage = 0.000537576 W
            Runtime Dynamic = 0.116622 W

          FP Front End RAT:
            Area = 0.0852001 mm^2
            Peak Dynamic = 1.61287 W
            Subthreshold Leakage = 0.0114141 W
            Subthreshold Leakage with power gating = 0.00650604 W
            Gate Leakage = 0.00723124 W
            Runtime Dynamic = 3.8126e-07 W

          Free List:
            Area = 0.0209802 mm^2
            Peak Dynamic = 0.0187401 W
            Subthreshold Leakage = 0.000157165 W
            Subthreshold Leakage with power gating = 8.49701e-05 W
            Gate Leakage = 5.50825e-05 W
            Runtime Dynamic = 0.0121391 W

      Load Store Unit:
        Area = 1.98568 mm^2
        Peak Dynamic = 1.73719 W
        Subthreshold Leakage = 0.0912613 W
        Subthreshold Leakage with power gating = 0.0480116 W
        Gate Leakage = 0.0319237 W
        Runtime Dynamic = 0.415344 W

          Data Cache:
            Area = 1.5316 mm^2
            Peak Dynamic = 1.58629 W
            Subthreshold Leakage = 0.0809419 W
            Subthreshold Leakage with power gating = 0.0432002 W
            Gate Leakage = 0.025643 W
            Runtime Dynamic = 0.255183 W

          LoadQ:
            Area = 0.0430063 mm^2
            Peak Dynamic = 0.0445222 W
            Subthreshold Leakage = 0.00238113 W
            Subthreshold Leakage with power gating = 0.00135725 W
            Gate Leakage = 0.000855022 W
            Runtime Dynamic = 0.0445222 W

          StoreQ:
            Area = 0.0515274 mm^2
            Peak Dynamic = 0.0578192 W
            Subthreshold Leakage = 0.00333321 W
            Subthreshold Leakage with power gating = 0.00189993 W
            Gate Leakage = 0.00112608 W
            Runtime Dynamic = 0.115639 W

      Memory Management Unit:
        Area = 0.100456 mm^2
        Peak Dynamic = 0.18474 W
        Subthreshold Leakage = 0.0106657 W
        Subthreshold Leakage with power gating = 0.00500875 W
        Gate Leakage = 0.0062802 W
        Runtime Dynamic = 0.0471172 W

          Itlb:
            Area = 0.0319967 mm^2
            Peak Dynamic = 0.0578023 W
            Subthreshold Leakage = 0.00232604 W
            Subthreshold Leakage with power gating = 0.00132584 W
            Gate Leakage = 0.000775623 W
            Runtime Dynamic = 0.00977716 W

          Dtlb:
            Area = 0.0456762 mm^2
            Peak Dynamic = 0.0371123 W
            Subthreshold Leakage = 0.00373455 W
            Subthreshold Leakage with power gating = 0.00212869 W
            Gate Leakage = 0.00120491 W
            Runtime Dynamic = 0.03734 W

      Execution Unit:
        Area = 4.30453 mm^2
        Peak Dynamic = 2.88273 W
        Subthreshold Leakage = 0.36545 W
        Subthreshold Leakage with power gating = 0.129924 W
        Gate Leakage = 0.137753 W
        Runtime Dynamic = 2.21694 W

          Register Files:
            Area = 0.293668 mm^2
            Peak Dynamic = 0.0651971 W
            Subthreshold Leakage = 0.00262543 W
            Subthreshold Leakage with power gating = 0.000992351 W
            Gate Leakage = 0.00090702 W
            Runtime Dynamic = 0.0756224 W

              Integer RF:
                Area = 0.186234 mm^2
                Peak Dynamic = 0.0651971 W
                Subthreshold Leakage = 0.00159167 W
                Subthreshold Leakage with power gating = 0.000581031 W
                Gate Leakage = 0.000571424 W
                Runtime Dynamic = 0.0666787 W

              Floating Point RF:
                Area = 0.107434 mm^2
                Peak Dynamic = 0 W
                Subthreshold Leakage = 0.00103377 W
                Subthreshold Leakage with power gating = 0.00041132 W
                Gate Leakage = 0.000335596 W
                Runtime Dynamic = 0.00894363 W

          Instruction Scheduler:
            Area = 1.11343 mm^2
            Peak Dynamic = 2.36434 W
            Subthreshold Leakage = 0.0299356 W
            Subthreshold Leakage with power gating = 0.0165819 W
            Gate Leakage = 0.0107484 W
            Runtime Dynamic = 0.945788 W

              Instruction Window:
                Area = 0.519531 mm^2
                Peak Dynamic = 1.01319 W
                Subthreshold Leakage = 0.0210861 W
                Subthreshold Leakage with power gating = 0.0119994 W
                Gate Leakage = 0.00784113 W
                Runtime Dynamic = 0.429365 W

              FP Instruction Window:
                Area = 0.167689 mm^2
                Peak Dynamic = 0.592068 W
                Subthreshold Leakage = 0.00447456 W
                Subthreshold Leakage with power gating = 0.00253081 W
                Gate Leakage = 0.0017016 W
                Runtime Dynamic = 0.249218 W

              ROB:
                Area = 0.426209 mm^2
                Peak Dynamic = 0.75908 W
                Subthreshold Leakage = 0.00437495 W
                Subthreshold Leakage with power gating = 0.0020517 W
                Gate Leakage = 0.00120572 W
                Runtime Dynamic = 0.267205 W

          Integer ALUs (Count: 6 ):
            Area = 0.329609 mm^2
            Peak Dynamic = 0.272107 W
            Subthreshold Leakage = 0.0927722 W
            Subthreshold Leakage with power gating = 0.0313106 W
            Gate Leakage = 0.0344197 W
            Runtime Dynamic = 0.311843 W

          Floating Point Units (FPUs) (Count: 2 ):
            Area = 2.35571 mm^2
            Peak Dynamic = 0 W
            Subthreshold Leakage = 0.16576 W
            Subthreshold Leakage with power gating = 0.055944 W
            Gate Leakage = 0.0614991 W
            Runtime Dynamic = 0.296664 W

          Complex ALUs (Mul/Div) (Count: 1 ):
            Area = 0.164805 mm^2
            Peak Dynamic = 0 W
            Subthreshold Leakage = 0.0463861 W
            Subthreshold Leakage with power gating = 0.0156553 W
            Gate Leakage = 0.0172098 W
            Runtime Dynamic = 0.197776 W

          Results Broadcast Bus:
            Area Overhead = 0.0245306 mm^2
            Peak Dynamic = 0.152778 W
            Subthreshold Leakage = 0.0233657 W
            Subthreshold Leakage with power gating = 0.00788591 W
            Gate Leakage = 0.00866896 W
            Runtime Dynamic = 0.389242 W

*****************************************************************************************
Core:
      Area = 12.6963 mm^2
      Peak Dynamic = 6.15728 W
      Subthreshold Leakage = 1.14508 W
      Subthreshold Leakage with power gating = 0.431469 W
      Gate Leakage = 0.431123 W
      Runtime Dynamic = 0.593327 W

      Instruction Fetch Unit:
        Area = 3.04058 mm^2
        Peak Dynamic = 0.968076 W
        Subthreshold Leakage = 0.226888 W
        Subthreshold Leakage with power gating = 0.0933342 W
        Gate Leakage = 0.082348 W
        Runtime Dynamic = 6.19764e-09 W

          Instruction Cache:
            Area = 1.60147 mm^2
            Peak Dynamic = 0 W
            Subthreshold Leakage = 0.093335 W
            Subthreshold Leakage with power gating = 0.044301 W
            Gate Leakage = 0.042566 W
            Runtime Dynamic = 0 W

          Branch Target Buffer:
            Area = 0.397072 mm^2
            Peak Dynamic = 0.0840866 W
            Subthreshold Leakage = 0.02173 W
            Subthreshold Leakage with power gating = 0.0105914 W
            Gate Leakage = 0.00551055 W
            Runtime Dynamic = 0 W

          Branch Predictor:
            Area = 0.0686002 mm^2
            Peak Dynamic = 0.0275933 W
            Subthreshold Leakage = 0.00468696 W
            Subthreshold Leakage with power gating = 0.00225328 W
            Gate Leakage = 0.00101062 W
            Runtime Dynamic = 0 W

              Global Predictor:
                Area = 0.0218979 mm^2
                Peak Dynamic = 0.0077921 W
                Subthreshold Leakage = 0.00178236 W
                Subthreshold Leakage with power gating = 0.000855551 W
                Gate Leakage = 0.000370196 W
                Runtime Dynamic = 0 W

              Local Predictor:
              L1_Local Predictor:
                Area = 0.0128884 mm^2
                Peak Dynamic = 0.00653673 W
                Subthreshold Leakage = 0.000903617 W
                Subthreshold Leakage with power gating = 0.000433877 W
                Gate Leakage = 0.000207902 W
                Runtime Dynamic = 0 W

              L2_Local Predictor:
                Area = 0.00661857 mm^2
                Peak Dynamic = 0.00333484 W
                Subthreshold Leakage = 0.000457985 W
                Subthreshold Leakage with power gating = 0.00021904 W
                Gate Leakage = 0.000109414 W
                Runtime Dynamic = 0 W

              Chooser:
                Area = 0.0218979 mm^2
                Peak Dynamic = 0.0077921 W
                Subthreshold Leakage = 0.00178236 W
                Subthreshold Leakage with power gating = 0.000855551 W
                Gate Leakage = 0.000370196 W
                Runtime Dynamic = 0 W

              RAS:
                Area = 0.00529751 mm^2
                Peak Dynamic = 0.00547237 W
                Subthreshold Leakage = 0.000218626 W
                Subthreshold Leakage with power gating = 0.000108298 W
                Gate Leakage = 6.23254e-05 W
                Runtime Dynamic = 0 W

          Instruction Buffer:
            Area = 0.0111146 mm^2
            Peak Dynamic = 0.290305 W
            Subthreshold Leakage = 0.000365712 W
            Subthreshold Leakage with power gating = 0.000153616 W
            Gate Leakage = 9.42121e-05 W
            Runtime Dynamic = 0 W

          Instruction Decoder:
            Area = 0.939544 mm^2
            Peak Dynamic = 0.566091 W
            Subthreshold Leakage = 0.102165 W
            Subthreshold Leakage with power gating = 0.0344807 W
            Gate Leakage = 0.028867 W
            Runtime Dynamic = 0 W

      Renaming Unit:
        Area = 0.187354 mm^2
        Peak Dynamic = 2.14888 W
        Subthreshold Leakage = 0.0176949 W
        Subthreshold Leakage with power gating = 0.00901078 W
        Gate Leakage = 0.0121236 W
        Runtime Dynamic = 6.19764e-09 W

          Int Front End RAT:
            Area = 0.0583904 mm^2
            Peak Dynamic = 0.386173 W
            Subthreshold Leakage = 0.00151853 W
            Subthreshold Leakage with power gating = 0.000865565 W
            Gate Leakage = 0.000537576 W
            Runtime Dynamic = 0 W

          FP Front End RAT:
            Area = 0.0852001 mm^2
            Peak Dynamic = 1.61287 W
            Subthreshold Leakage = 0.0114141 W
            Subthreshold Leakage with power gating = 0.00650604 W
            Gate Leakage = 0.00723124 W
            Runtime Dynamic = 0 W

          Free List:
            Area = 0.0209802 mm^2
            Peak Dynamic = 0.0187401 W
            Subthreshold Leakage = 0.000157165 W
            Subthreshold Leakage with power gating = 8.49701e-05 W
            Gate Leakage = 5.50825e-05 W
            Runtime Dynamic = 0 W

      Load Store Unit:
        Area = 1.98568 mm^2
        Peak Dynamic = 0.610437 W
        Subthreshold Leakage = 0.0912613 W
        Subthreshold Leakage with power gating = 0.0480116 W
        Gate Leakage = 0.0319237 W
        Runtime Dynamic = 6.19764e-09 W

          Data Cache:
            Area = 1.5316 mm^2
            Peak Dynamic = 0.610437 W
            Subthreshold Leakage = 0.0809419 W
            Subthreshold Leakage with power gating = 0.0432002 W
            Gate Leakage = 0.025643 W
            Runtime Dynamic = 0 W

          LoadQ:
            Area = 0.0430063 mm^2
            Peak Dynamic = 0 W
            Subthreshold Leakage = 0.00238113 W
            Subthreshold Leakage with power gating = 0.00135725 W
            Gate Leakage = 0.000855022 W
            Runtime Dynamic = 0 W

          StoreQ:
            Area = 0.0515274 mm^2
            Peak Dynamic = 0 W
            Subthreshold Leakage = 0.00333321 W
            Subthreshold Leakage with power gating = 0.00189993 W
            Gate Leakage = 0.00112608 W
            Runtime Dynamic = 0 W

      Memory Management Unit:
        Area = 0.100456 mm^2
        Peak Dynamic = 0.0655457 W
        Subthreshold Leakage = 0.0106657 W
        Subthreshold Leakage with power gating = 0.00500875 W
        Gate Leakage = 0.0062802 W
        Runtime Dynamic = 6.19764e-09 W

          Itlb:
            Area = 0.0319967 mm^2
            Peak Dynamic = 0 W
            Subthreshold Leakage = 0.00232604 W
            Subthreshold Leakage with power gating = 0.00132584 W
            Gate Leakage = 0.000775623 W
            Runtime Dynamic = 0 W

          Dtlb:
            Area = 0.0456762 mm^2
            Peak Dynamic = 0 W
            Subthreshold Leakage = 0.00373455 W
            Subthreshold Leakage with power gating = 0.00212869 W
            Gate Leakage = 0.00120491 W
            Runtime Dynamic = 0 W

      Execution Unit:
        Area = 4.30453 mm^2
        Peak Dynamic = 2.36434 W
        Subthreshold Leakage = 0.36545 W
        Subthreshold Leakage with power gating = 0.129924 W
        Gate Leakage = 0.137753 W
        Runtime Dynamic = 0.593327 W

          Register Files:
            Area = 0.293668 mm^2
            Peak Dynamic = 0 W
            Subthreshold Leakage = 0.00262543 W
            Subthreshold Leakage with power gating = 0.000992351 W
            Gate Leakage = 0.00090702 W
            Runtime Dynamic = 0 W

              Integer RF:
                Area = 0.186234 mm^2
                Peak Dynamic = 0 W
                Subthreshold Leakage = 0.00159167 W
                Subthreshold Leakage with power gating = 0.000581031 W
                Gate Leakage = 0.000571424 W
                Runtime Dynamic = 0 W

              Floating Point RF:
                Area = 0.107434 mm^2
                Peak Dynamic = 0 W
                Subthreshold Leakage = 0.00103377 W
                Subthreshold Leakage with power gating = 0.00041132 W
                Gate Leakage = 0.000335596 W
                Runtime Dynamic = 0 W

          Instruction Scheduler:
            Area = 1.11343 mm^2
            Peak Dynamic = 2.36434 W
            Subthreshold Leakage = 0.0299356 W
            Subthreshold Leakage with power gating = 0.0165819 W
            Gate Leakage = 0.0107484 W
            Runtime Dynamic = 0 W

              Instruction Window:
                Area = 0.519531 mm^2
                Peak Dynamic = 1.01319 W
                Subthreshold Leakage = 0.0210861 W
                Subthreshold Leakage with power gating = 0.0119994 W
                Gate Leakage = 0.00784113 W
                Runtime Dynamic = 0 W

              FP Instruction Window:
                Area = 0.167689 mm^2
                Peak Dynamic = 0.592068 W
                Subthreshold Leakage = 0.00447456 W
                Subthreshold Leakage with power gating = 0.00253081 W
                Gate Leakage = 0.0017016 W
                Runtime Dynamic = 0 W

              ROB:
                Area = 0.426209 mm^2
                Peak Dynamic = 0.75908 W
                Subthreshold Leakage = 0.00437495 W
                Subthreshold Leakage with power gating = 0.0020517 W
                Gate Leakage = 0.00120572 W
                Runtime Dynamic = 0 W

          Integer ALUs (Count: 6 ):
            Area = 0.329609 mm^2
            Peak Dynamic = 0 W
            Subthreshold Leakage = 0.0927722 W
            Subthreshold Leakage with power gating = 0.0313106 W
            Gate Leakage = 0.0344197 W
            Runtime Dynamic = 0.0988879 W

          Floating Point Units (FPUs) (Count: 2 ):
            Area = 2.35571 mm^2
            Peak Dynamic = 0 W
            Subthreshold Leakage = 0.16576 W
            Subthreshold Leakage with power gating = 0.055944 W
            Gate Leakage = 0.0614991 W
            Runtime Dynamic = 0.296664 W

          Complex ALUs (Mul/Div) (Count: 1 ):
            Area = 0.164805 mm^2
            Peak Dynamic = 0 W
            Subthreshold Leakage = 0.0463861 W
            Subthreshold Leakage with power gating = 0.0156553 W
            Gate Leakage = 0.0172098 W
            Runtime Dynamic = 0.197776 W

          Results Broadcast Bus:
            Area Overhead = 0.0245306 mm^2
            Peak Dynamic = 0 W
            Subthreshold Leakage = 0.0233657 W
            Subthreshold Leakage with power gating = 0.00788591 W
            Gate Leakage = 0.00866896 W
            Runtime Dynamic = 0 W

*****************************************************************************************
Core:
      Area = 12.6963 mm^2
      Peak Dynamic = 6.15728 W
      Subthreshold Leakage = 1.14508 W
      Subthreshold Leakage with power gating = 0.431469 W
      Gate Leakage = 0.431123 W
      Runtime Dynamic = 0.593327 W

      Instruction Fetch Unit:
        Area = 3.04058 mm^2
        Peak Dynamic = 0.968076 W
        Subthreshold Leakage = 0.226888 W
        Subthreshold Leakage with power gating = 0.0933342 W
        Gate Leakage = 0.082348 W
        Runtime Dynamic = 6.19764e-09 W

          Instruction Cache:
            Area = 1.60147 mm^2
            Peak Dynamic = 0 W
            Subthreshold Leakage = 0.093335 W
            Subthreshold Leakage with power gating = 0.044301 W
            Gate Leakage = 0.042566 W
            Runtime Dynamic = 0 W

          Branch Target Buffer:
            Area = 0.397072 mm^2
            Peak Dynamic = 0.0840866 W
            Subthreshold Leakage = 0.02173 W
            Subthreshold Leakage with power gating = 0.0105914 W
            Gate Leakage = 0.00551055 W
            Runtime Dynamic = 0 W

          Branch Predictor:
            Area = 0.0686002 mm^2
            Peak Dynamic = 0.0275933 W
            Subthreshold Leakage = 0.00468696 W
            Subthreshold Leakage with power gating = 0.00225328 W
            Gate Leakage = 0.00101062 W
            Runtime Dynamic = 0 W

              Global Predictor:
                Area = 0.0218979 mm^2
                Peak Dynamic = 0.0077921 W
                Subthreshold Leakage = 0.00178236 W
                Subthreshold Leakage with power gating = 0.000855551 W
                Gate Leakage = 0.000370196 W
                Runtime Dynamic = 0 W

              Local Predictor:
              L1_Local Predictor:
                Area = 0.0128884 mm^2
                Peak Dynamic = 0.00653673 W
                Subthreshold Leakage = 0.000903617 W
                Subthreshold Leakage with power gating = 0.000433877 W
                Gate Leakage = 0.000207902 W
                Runtime Dynamic = 0 W

              L2_Local Predictor:
                Area = 0.00661857 mm^2
                Peak Dynamic = 0.00333484 W
                Subthreshold Leakage = 0.000457985 W
                Subthreshold Leakage with power gating = 0.00021904 W
                Gate Leakage = 0.000109414 W
                Runtime Dynamic = 0 W

              Chooser:
                Area = 0.0218979 mm^2
                Peak Dynamic = 0.0077921 W
                Subthreshold Leakage = 0.00178236 W
                Subthreshold Leakage with power gating = 0.000855551 W
                Gate Leakage = 0.000370196 W
                Runtime Dynamic = 0 W

              RAS:
                Area = 0.00529751 mm^2
                Peak Dynamic = 0.00547237 W
                Subthreshold Leakage = 0.000218626 W
                Subthreshold Leakage with power gating = 0.000108298 W
                Gate Leakage = 6.23254e-05 W
                Runtime Dynamic = 0 W

          Instruction Buffer:
            Area = 0.0111146 mm^2
            Peak Dynamic = 0.290305 W
            Subthreshold Leakage = 0.000365712 W
            Subthreshold Leakage with power gating = 0.000153616 W
            Gate Leakage = 9.42121e-05 W
            Runtime Dynamic = 0 W

          Instruction Decoder:
            Area = 0.939544 mm^2
            Peak Dynamic = 0.566091 W
            Subthreshold Leakage = 0.102165 W
            Subthreshold Leakage with power gating = 0.0344807 W
            Gate Leakage = 0.028867 W
            Runtime Dynamic = 0 W

      Renaming Unit:
        Area = 0.187354 mm^2
        Peak Dynamic = 2.14888 W
        Subthreshold Leakage = 0.0176949 W
        Subthreshold Leakage with power gating = 0.00901078 W
        Gate Leakage = 0.0121236 W
        Runtime Dynamic = 6.19764e-09 W

          Int Front End RAT:
            Area = 0.0583904 mm^2
            Peak Dynamic = 0.386173 W
            Subthreshold Leakage = 0.00151853 W
            Subthreshold Leakage with power gating = 0.000865565 W
            Gate Leakage = 0.000537576 W
            Runtime Dynamic = 0 W

          FP Front End RAT:
            Area = 0.0852001 mm^2
            Peak Dynamic = 1.61287 W
            Subthreshold Leakage = 0.0114141 W
            Subthreshold Leakage with power gating = 0.00650604 W
            Gate Leakage = 0.00723124 W
            Runtime Dynamic = 0 W

          Free List:
            Area = 0.0209802 mm^2
            Peak Dynamic = 0.0187401 W
            Subthreshold Leakage = 0.000157165 W
            Subthreshold Leakage with power gating = 8.49701e-05 W
            Gate Leakage = 5.50825e-05 W
            Runtime Dynamic = 0 W

      Load Store Unit:
        Area = 1.98568 mm^2
        Peak Dynamic = 0.610437 W
        Subthreshold Leakage = 0.0912613 W
        Subthreshold Leakage with power gating = 0.0480116 W
        Gate Leakage = 0.0319237 W
        Runtime Dynamic = 6.19764e-09 W

          Data Cache:
            Area = 1.5316 mm^2
            Peak Dynamic = 0.610437 W
            Subthreshold Leakage = 0.0809419 W
            Subthreshold Leakage with power gating = 0.0432002 W
            Gate Leakage = 0.025643 W
            Runtime Dynamic = 0 W

          LoadQ:
            Area = 0.0430063 mm^2
            Peak Dynamic = 0 W
            Subthreshold Leakage = 0.00238113 W
            Subthreshold Leakage with power gating = 0.00135725 W
            Gate Leakage = 0.000855022 W
            Runtime Dynamic = 0 W

          StoreQ:
            Area = 0.0515274 mm^2
            Peak Dynamic = 0 W
            Subthreshold Leakage = 0.00333321 W
            Subthreshold Leakage with power gating = 0.00189993 W
            Gate Leakage = 0.00112608 W
            Runtime Dynamic = 0 W

      Memory Management Unit:
        Area = 0.100456 mm^2
        Peak Dynamic = 0.0655457 W
        Subthreshold Leakage = 0.0106657 W
        Subthreshold Leakage with power gating = 0.00500875 W
        Gate Leakage = 0.0062802 W
        Runtime Dynamic = 6.19764e-09 W

          Itlb:
            Area = 0.0319967 mm^2
            Peak Dynamic = 0 W
            Subthreshold Leakage = 0.00232604 W
            Subthreshold Leakage with power gating = 0.00132584 W
            Gate Leakage = 0.000775623 W
            Runtime Dynamic = 0 W

          Dtlb:
            Area = 0.0456762 mm^2
            Peak Dynamic = 0 W
            Subthreshold Leakage = 0.00373455 W
            Subthreshold Leakage with power gating = 0.00212869 W
            Gate Leakage = 0.00120491 W
            Runtime Dynamic = 0 W

      Execution Unit:
        Area = 4.30453 mm^2
        Peak Dynamic = 2.36434 W
        Subthreshold Leakage = 0.36545 W
        Subthreshold Leakage with power gating = 0.129924 W
        Gate Leakage = 0.137753 W
        Runtime Dynamic = 0.593327 W

          Register Files:
            Area = 0.293668 mm^2
            Peak Dynamic = 0 W
            Subthreshold Leakage = 0.00262543 W
            Subthreshold Leakage with power gating = 0.000992351 W
            Gate Leakage = 0.00090702 W
            Runtime Dynamic = 0 W

              Integer RF:
                Area = 0.186234 mm^2
                Peak Dynamic = 0 W
                Subthreshold Leakage = 0.00159167 W
                Subthreshold Leakage with power gating = 0.000581031 W
                Gate Leakage = 0.000571424 W
                Runtime Dynamic = 0 W

              Floating Point RF:
                Area = 0.107434 mm^2
                Peak Dynamic = 0 W
                Subthreshold Leakage = 0.00103377 W
                Subthreshold Leakage with power gating = 0.00041132 W
                Gate Leakage = 0.000335596 W
                Runtime Dynamic = 0 W

          Instruction Scheduler:
            Area = 1.11343 mm^2
            Peak Dynamic = 2.36434 W
            Subthreshold Leakage = 0.0299356 W
            Subthreshold Leakage with power gating = 0.0165819 W
            Gate Leakage = 0.0107484 W
            Runtime Dynamic = 0 W

              Instruction Window:
                Area = 0.519531 mm^2
                Peak Dynamic = 1.01319 W
                Subthreshold Leakage = 0.0210861 W
                Subthreshold Leakage with power gating = 0.0119994 W
                Gate Leakage = 0.00784113 W
                Runtime Dynamic = 0 W

              FP Instruction Window:
                Area = 0.167689 mm^2
                Peak Dynamic = 0.592068 W
                Subthreshold Leakage = 0.00447456 W
                Subthreshold Leakage with power gating = 0.00253081 W
                Gate Leakage = 0.0017016 W
                Runtime Dynamic = 0 W

              ROB:
                Area = 0.426209 mm^2
                Peak Dynamic = 0.75908 W
                Subthreshold Leakage = 0.00437495 W
                Subthreshold Leakage with power gating = 0.0020517 W
                Gate Leakage = 0.00120572 W
                Runtime Dynamic = 0 W

          Integer ALUs (Count: 6 ):
            Area = 0.329609 mm^2
            Peak Dynamic = 0 W
            Subthreshold Leakage = 0.0927722 W
            Subthreshold Leakage with power gating = 0.0313106 W
            Gate Leakage = 0.0344197 W
            Runtime Dynamic = 0.0988879 W

          Floating Point Units (FPUs) (Count: 2 ):
            Area = 2.35571 mm^2
            Peak Dynamic = 0 W
            Subthreshold Leakage = 0.16576 W
            Subthreshold Leakage with power gating = 0.055944 W
            Gate Leakage = 0.0614991 W
            Runtime Dynamic = 0.296664 W

          Complex ALUs (Mul/Div) (Count: 1 ):
            Area = 0.164805 mm^2
            Peak Dynamic = 0 W
            Subthreshold Leakage = 0.0463861 W
            Subthreshold Leakage with power gating = 0.0156553 W
            Gate Leakage = 0.0172098 W
            Runtime Dynamic = 0.197776 W

          Results Broadcast Bus:
            Area Overhead = 0.0245306 mm^2
            Peak Dynamic = 0 W
            Subthreshold Leakage = 0.0233657 W
            Subthreshold Leakage with power gating = 0.00788591 W
            Gate Leakage = 0.00866896 W
            Runtime Dynamic = 0 W

*****************************************************************************************
Core:
      Area = 12.6963 mm^2
      Peak Dynamic = 6.15728 W
      Subthreshold Leakage = 1.14508 W
      Subthreshold Leakage with power gating = 0.431469 W
      Gate Leakage = 0.431123 W
      Runtime Dynamic = 0.593327 W

      Instruction Fetch Unit:
        Area = 3.04058 mm^2
        Peak Dynamic = 0.968076 W
        Subthreshold Leakage = 0.226888 W
        Subthreshold Leakage with power gating = 0.0933342 W
        Gate Leakage = 0.082348 W
        Runtime Dynamic = 6.19764e-09 W

          Instruction Cache:
            Area = 1.60147 mm^2
            Peak Dynamic = 0 W
            Subthreshold Leakage = 0.093335 W
            Subthreshold Leakage with power gating = 0.044301 W
            Gate Leakage = 0.042566 W
            Runtime Dynamic = 0 W

          Branch Target Buffer:
            Area = 0.397072 mm^2
            Peak Dynamic = 0.0840866 W
            Subthreshold Leakage = 0.02173 W
            Subthreshold Leakage with power gating = 0.0105914 W
            Gate Leakage = 0.00551055 W
            Runtime Dynamic = 0 W

          Branch Predictor:
            Area = 0.0686002 mm^2
            Peak Dynamic = 0.0275933 W
            Subthreshold Leakage = 0.00468696 W
            Subthreshold Leakage with power gating = 0.00225328 W
            Gate Leakage = 0.00101062 W
            Runtime Dynamic = 0 W

              Global Predictor:
                Area = 0.0218979 mm^2
                Peak Dynamic = 0.0077921 W
                Subthreshold Leakage = 0.00178236 W
                Subthreshold Leakage with power gating = 0.000855551 W
                Gate Leakage = 0.000370196 W
                Runtime Dynamic = 0 W

              Local Predictor:
              L1_Local Predictor:
                Area = 0.0128884 mm^2
                Peak Dynamic = 0.00653673 W
                Subthreshold Leakage = 0.000903617 W
                Subthreshold Leakage with power gating = 0.000433877 W
                Gate Leakage = 0.000207902 W
                Runtime Dynamic = 0 W

              L2_Local Predictor:
                Area = 0.00661857 mm^2
                Peak Dynamic = 0.00333484 W
                Subthreshold Leakage = 0.000457985 W
                Subthreshold Leakage with power gating = 0.00021904 W
                Gate Leakage = 0.000109414 W
                Runtime Dynamic = 0 W

              Chooser:
                Area = 0.0218979 mm^2
                Peak Dynamic = 0.0077921 W
                Subthreshold Leakage = 0.00178236 W
                Subthreshold Leakage with power gating = 0.000855551 W
                Gate Leakage = 0.000370196 W
                Runtime Dynamic = 0 W

              RAS:
                Area = 0.00529751 mm^2
                Peak Dynamic = 0.00547237 W
                Subthreshold Leakage = 0.000218626 W
                Subthreshold Leakage with power gating = 0.000108298 W
                Gate Leakage = 6.23254e-05 W
                Runtime Dynamic = 0 W

          Instruction Buffer:
            Area = 0.0111146 mm^2
            Peak Dynamic = 0.290305 W
            Subthreshold Leakage = 0.000365712 W
            Subthreshold Leakage with power gating = 0.000153616 W
            Gate Leakage = 9.42121e-05 W
            Runtime Dynamic = 0 W

          Instruction Decoder:
            Area = 0.939544 mm^2
            Peak Dynamic = 0.566091 W
            Subthreshold Leakage = 0.102165 W
            Subthreshold Leakage with power gating = 0.0344807 W
            Gate Leakage = 0.028867 W
            Runtime Dynamic = 0 W

      Renaming Unit:
        Area = 0.187354 mm^2
        Peak Dynamic = 2.14888 W
        Subthreshold Leakage = 0.0176949 W
        Subthreshold Leakage with power gating = 0.00901078 W
        Gate Leakage = 0.0121236 W
        Runtime Dynamic = 6.19764e-09 W

          Int Front End RAT:
            Area = 0.0583904 mm^2
            Peak Dynamic = 0.386173 W
            Subthreshold Leakage = 0.00151853 W
            Subthreshold Leakage with power gating = 0.000865565 W
            Gate Leakage = 0.000537576 W
            Runtime Dynamic = 0 W

          FP Front End RAT:
            Area = 0.0852001 mm^2
            Peak Dynamic = 1.61287 W
            Subthreshold Leakage = 0.0114141 W
            Subthreshold Leakage with power gating = 0.00650604 W
            Gate Leakage = 0.00723124 W
            Runtime Dynamic = 0 W

          Free List:
            Area = 0.0209802 mm^2
            Peak Dynamic = 0.0187401 W
            Subthreshold Leakage = 0.000157165 W
            Subthreshold Leakage with power gating = 8.49701e-05 W
            Gate Leakage = 5.50825e-05 W
            Runtime Dynamic = 0 W

      Load Store Unit:
        Area = 1.98568 mm^2
        Peak Dynamic = 0.610437 W
        Subthreshold Leakage = 0.0912613 W
        Subthreshold Leakage with power gating = 0.0480116 W
        Gate Leakage = 0.0319237 W
        Runtime Dynamic = 6.19764e-09 W

          Data Cache:
            Area = 1.5316 mm^2
            Peak Dynamic = 0.610437 W
            Subthreshold Leakage = 0.0809419 W
            Subthreshold Leakage with power gating = 0.0432002 W
            Gate Leakage = 0.025643 W
            Runtime Dynamic = 0 W

          LoadQ:
            Area = 0.0430063 mm^2
            Peak Dynamic = 0 W
            Subthreshold Leakage = 0.00238113 W
            Subthreshold Leakage with power gating = 0.00135725 W
            Gate Leakage = 0.000855022 W
            Runtime Dynamic = 0 W

          StoreQ:
            Area = 0.0515274 mm^2
            Peak Dynamic = 0 W
            Subthreshold Leakage = 0.00333321 W
            Subthreshold Leakage with power gating = 0.00189993 W
            Gate Leakage = 0.00112608 W
            Runtime Dynamic = 0 W

      Memory Management Unit:
        Area = 0.100456 mm^2
        Peak Dynamic = 0.0655457 W
        Subthreshold Leakage = 0.0106657 W
        Subthreshold Leakage with power gating = 0.00500875 W
        Gate Leakage = 0.0062802 W
        Runtime Dynamic = 6.19764e-09 W

          Itlb:
            Area = 0.0319967 mm^2
            Peak Dynamic = 0 W
            Subthreshold Leakage = 0.00232604 W
            Subthreshold Leakage with power gating = 0.00132584 W
            Gate Leakage = 0.000775623 W
            Runtime Dynamic = 0 W

          Dtlb:
            Area = 0.0456762 mm^2
            Peak Dynamic = 0 W
            Subthreshold Leakage = 0.00373455 W
            Subthreshold Leakage with power gating = 0.00212869 W
            Gate Leakage = 0.00120491 W
            Runtime Dynamic = 0 W

      Execution Unit:
        Area = 4.30453 mm^2
        Peak Dynamic = 2.36434 W
        Subthreshold Leakage = 0.36545 W
        Subthreshold Leakage with power gating = 0.129924 W
        Gate Leakage = 0.137753 W
        Runtime Dynamic = 0.593327 W

          Register Files:
            Area = 0.293668 mm^2
            Peak Dynamic = 0 W
            Subthreshold Leakage = 0.00262543 W
            Subthreshold Leakage with power gating = 0.000992351 W
            Gate Leakage = 0.00090702 W
            Runtime Dynamic = 0 W

              Integer RF:
                Area = 0.186234 mm^2
                Peak Dynamic = 0 W
                Subthreshold Leakage = 0.00159167 W
                Subthreshold Leakage with power gating = 0.000581031 W
                Gate Leakage = 0.000571424 W
                Runtime Dynamic = 0 W

              Floating Point RF:
                Area = 0.107434 mm^2
                Peak Dynamic = 0 W
                Subthreshold Leakage = 0.00103377 W
                Subthreshold Leakage with power gating = 0.00041132 W
                Gate Leakage = 0.000335596 W
                Runtime Dynamic = 0 W

          Instruction Scheduler:
            Area = 1.11343 mm^2
            Peak Dynamic = 2.36434 W
            Subthreshold Leakage = 0.0299356 W
            Subthreshold Leakage with power gating = 0.0165819 W
            Gate Leakage = 0.0107484 W
            Runtime Dynamic = 0 W

              Instruction Window:
                Area = 0.519531 mm^2
                Peak Dynamic = 1.01319 W
                Subthreshold Leakage = 0.0210861 W
                Subthreshold Leakage with power gating = 0.0119994 W
                Gate Leakage = 0.00784113 W
                Runtime Dynamic = 0 W

              FP Instruction Window:
                Area = 0.167689 mm^2
                Peak Dynamic = 0.592068 W
                Subthreshold Leakage = 0.00447456 W
                Subthreshold Leakage with power gating = 0.00253081 W
                Gate Leakage = 0.0017016 W
                Runtime Dynamic = 0 W

              ROB:
                Area = 0.426209 mm^2
                Peak Dynamic = 0.75908 W
                Subthreshold Leakage = 0.00437495 W
                Subthreshold Leakage with power gating = 0.0020517 W
                Gate Leakage = 0.00120572 W
                Runtime Dynamic = 0 W

          Integer ALUs (Count: 6 ):
            Area = 0.329609 mm^2
            Peak Dynamic = 0 W
            Subthreshold Leakage = 0.0927722 W
            Subthreshold Leakage with power gating = 0.0313106 W
            Gate Leakage = 0.0344197 W
            Runtime Dynamic = 0.0988879 W

          Floating Point Units (FPUs) (Count: 2 ):
            Area = 2.35571 mm^2
            Peak Dynamic = 0 W
            Subthreshold Leakage = 0.16576 W
            Subthreshold Leakage with power gating = 0.055944 W
            Gate Leakage = 0.0614991 W
            Runtime Dynamic = 0.296664 W

          Complex ALUs (Mul/Div) (Count: 1 ):
            Area = 0.164805 mm^2
            Peak Dynamic = 0 W
            Subthreshold Leakage = 0.0463861 W
            Subthreshold Leakage with power gating = 0.0156553 W
            Gate Leakage = 0.0172098 W
            Runtime Dynamic = 0.197776 W

          Results Broadcast Bus:
            Area Overhead = 0.0245306 mm^2
            Peak Dynamic = 0 W
            Subthreshold Leakage = 0.0233657 W
            Subthreshold Leakage with power gating = 0.00788591 W
            Gate Leakage = 0.00866896 W
            Runtime Dynamic = 0 W

*****************************************************************************************
Core:
      Area = 12.6963 mm^2
      Peak Dynamic = 6.15728 W
      Subthreshold Leakage = 1.14508 W
      Subthreshold Leakage with power gating = 0.431469 W
      Gate Leakage = 0.431123 W
      Runtime Dynamic = 0.593327 W

      Instruction Fetch Unit:
        Area = 3.04058 mm^2
        Peak Dynamic = 0.968076 W
        Subthreshold Leakage = 0.226888 W
        Subthreshold Leakage with power gating = 0.0933342 W
        Gate Leakage = 0.082348 W
        Runtime Dynamic = 6.19764e-09 W

          Instruction Cache:
            Area = 1.60147 mm^2
            Peak Dynamic = 0 W
            Subthreshold Leakage = 0.093335 W
            Subthreshold Leakage with power gating = 0.044301 W
            Gate Leakage = 0.042566 W
            Runtime Dynamic = 0 W

          Branch Target Buffer:
            Area = 0.397072 mm^2
            Peak Dynamic = 0.0840866 W
            Subthreshold Leakage = 0.02173 W
            Subthreshold Leakage with power gating = 0.0105914 W
            Gate Leakage = 0.00551055 W
            Runtime Dynamic = 0 W

          Branch Predictor:
            Area = 0.0686002 mm^2
            Peak Dynamic = 0.0275933 W
            Subthreshold Leakage = 0.00468696 W
            Subthreshold Leakage with power gating = 0.00225328 W
            Gate Leakage = 0.00101062 W
            Runtime Dynamic = 0 W

              Global Predictor:
                Area = 0.0218979 mm^2
                Peak Dynamic = 0.0077921 W
                Subthreshold Leakage = 0.00178236 W
                Subthreshold Leakage with power gating = 0.000855551 W
                Gate Leakage = 0.000370196 W
                Runtime Dynamic = 0 W

              Local Predictor:
              L1_Local Predictor:
                Area = 0.0128884 mm^2
                Peak Dynamic = 0.00653673 W
                Subthreshold Leakage = 0.000903617 W
                Subthreshold Leakage with power gating = 0.000433877 W
                Gate Leakage = 0.000207902 W
                Runtime Dynamic = 0 W

              L2_Local Predictor:
                Area = 0.00661857 mm^2
                Peak Dynamic = 0.00333484 W
                Subthreshold Leakage = 0.000457985 W
                Subthreshold Leakage with power gating = 0.00021904 W
                Gate Leakage = 0.000109414 W
                Runtime Dynamic = 0 W

              Chooser:
                Area = 0.0218979 mm^2
                Peak Dynamic = 0.0077921 W
                Subthreshold Leakage = 0.00178236 W
                Subthreshold Leakage with power gating = 0.000855551 W
                Gate Leakage = 0.000370196 W
                Runtime Dynamic = 0 W

              RAS:
                Area = 0.00529751 mm^2
                Peak Dynamic = 0.00547237 W
                Subthreshold Leakage = 0.000218626 W
                Subthreshold Leakage with power gating = 0.000108298 W
                Gate Leakage = 6.23254e-05 W
                Runtime Dynamic = 0 W

          Instruction Buffer:
            Area = 0.0111146 mm^2
            Peak Dynamic = 0.290305 W
            Subthreshold Leakage = 0.000365712 W
            Subthreshold Leakage with power gating = 0.000153616 W
            Gate Leakage = 9.42121e-05 W
            Runtime Dynamic = 0 W

          Instruction Decoder:
            Area = 0.939544 mm^2
            Peak Dynamic = 0.566091 W
            Subthreshold Leakage = 0.102165 W
            Subthreshold Leakage with power gating = 0.0344807 W
            Gate Leakage = 0.028867 W
            Runtime Dynamic = 0 W

      Renaming Unit:
        Area = 0.187354 mm^2
        Peak Dynamic = 2.14888 W
        Subthreshold Leakage = 0.0176949 W
        Subthreshold Leakage with power gating = 0.00901078 W
        Gate Leakage = 0.0121236 W
        Runtime Dynamic = 6.19764e-09 W

          Int Front End RAT:
            Area = 0.0583904 mm^2
            Peak Dynamic = 0.386173 W
            Subthreshold Leakage = 0.00151853 W
            Subthreshold Leakage with power gating = 0.000865565 W
            Gate Leakage = 0.000537576 W
            Runtime Dynamic = 0 W

          FP Front End RAT:
            Area = 0.0852001 mm^2
            Peak Dynamic = 1.61287 W
            Subthreshold Leakage = 0.0114141 W
            Subthreshold Leakage with power gating = 0.00650604 W
            Gate Leakage = 0.00723124 W
            Runtime Dynamic = 0 W

          Free List:
            Area = 0.0209802 mm^2
            Peak Dynamic = 0.0187401 W
            Subthreshold Leakage = 0.000157165 W
            Subthreshold Leakage with power gating = 8.49701e-05 W
            Gate Leakage = 5.50825e-05 W
            Runtime Dynamic = 0 W

      Load Store Unit:
        Area = 1.98568 mm^2
        Peak Dynamic = 0.610437 W
        Subthreshold Leakage = 0.0912613 W
        Subthreshold Leakage with power gating = 0.0480116 W
        Gate Leakage = 0.0319237 W
        Runtime Dynamic = 6.19764e-09 W

          Data Cache:
            Area = 1.5316 mm^2
            Peak Dynamic = 0.610437 W
            Subthreshold Leakage = 0.0809419 W
            Subthreshold Leakage with power gating = 0.0432002 W
            Gate Leakage = 0.025643 W
            Runtime Dynamic = 0 W

          LoadQ:
            Area = 0.0430063 mm^2
            Peak Dynamic = 0 W
            Subthreshold Leakage = 0.00238113 W
            Subthreshold Leakage with power gating = 0.00135725 W
            Gate Leakage = 0.000855022 W
            Runtime Dynamic = 0 W

          StoreQ:
            Area = 0.0515274 mm^2
            Peak Dynamic = 0 W
            Subthreshold Leakage = 0.00333321 W
            Subthreshold Leakage with power gating = 0.00189993 W
            Gate Leakage = 0.00112608 W
            Runtime Dynamic = 0 W

      Memory Management Unit:
        Area = 0.100456 mm^2
        Peak Dynamic = 0.0655457 W
        Subthreshold Leakage = 0.0106657 W
        Subthreshold Leakage with power gating = 0.00500875 W
        Gate Leakage = 0.0062802 W
        Runtime Dynamic = 6.19764e-09 W

          Itlb:
            Area = 0.0319967 mm^2
            Peak Dynamic = 0 W
            Subthreshold Leakage = 0.00232604 W
            Subthreshold Leakage with power gating = 0.00132584 W
            Gate Leakage = 0.000775623 W
            Runtime Dynamic = 0 W

          Dtlb:
            Area = 0.0456762 mm^2
            Peak Dynamic = 0 W
            Subthreshold Leakage = 0.00373455 W
            Subthreshold Leakage with power gating = 0.00212869 W
            Gate Leakage = 0.00120491 W
            Runtime Dynamic = 0 W

      Execution Unit:
        Area = 4.30453 mm^2
        Peak Dynamic = 2.36434 W
        Subthreshold Leakage = 0.36545 W
        Subthreshold Leakage with power gating = 0.129924 W
        Gate Leakage = 0.137753 W
        Runtime Dynamic = 0.593327 W

          Register Files:
            Area = 0.293668 mm^2
            Peak Dynamic = 0 W
            Subthreshold Leakage = 0.00262543 W
            Subthreshold Leakage with power gating = 0.000992351 W
            Gate Leakage = 0.00090702 W
            Runtime Dynamic = 0 W

              Integer RF:
                Area = 0.186234 mm^2
                Peak Dynamic = 0 W
                Subthreshold Leakage = 0.00159167 W
                Subthreshold Leakage with power gating = 0.000581031 W
                Gate Leakage = 0.000571424 W
                Runtime Dynamic = 0 W

              Floating Point RF:
                Area = 0.107434 mm^2
                Peak Dynamic = 0 W
                Subthreshold Leakage = 0.00103377 W
                Subthreshold Leakage with power gating = 0.00041132 W
                Gate Leakage = 0.000335596 W
                Runtime Dynamic = 0 W

          Instruction Scheduler:
            Area = 1.11343 mm^2
            Peak Dynamic = 2.36434 W
            Subthreshold Leakage = 0.0299356 W
            Subthreshold Leakage with power gating = 0.0165819 W
            Gate Leakage = 0.0107484 W
            Runtime Dynamic = 0 W

              Instruction Window:
                Area = 0.519531 mm^2
                Peak Dynamic = 1.01319 W
                Subthreshold Leakage = 0.0210861 W
                Subthreshold Leakage with power gating = 0.0119994 W
                Gate Leakage = 0.00784113 W
                Runtime Dynamic = 0 W

              FP Instruction Window:
                Area = 0.167689 mm^2
                Peak Dynamic = 0.592068 W
                Subthreshold Leakage = 0.00447456 W
                Subthreshold Leakage with power gating = 0.00253081 W
                Gate Leakage = 0.0017016 W
                Runtime Dynamic = 0 W

              ROB:
                Area = 0.426209 mm^2
                Peak Dynamic = 0.75908 W
                Subthreshold Leakage = 0.00437495 W
                Subthreshold Leakage with power gating = 0.0020517 W
                Gate Leakage = 0.00120572 W
                Runtime Dynamic = 0 W

          Integer ALUs (Count: 6 ):
            Area = 0.329609 mm^2
            Peak Dynamic = 0 W
            Subthreshold Leakage = 0.0927722 W
            Subthreshold Leakage with power gating = 0.0313106 W
            Gate Leakage = 0.0344197 W
            Runtime Dynamic = 0.0988879 W

          Floating Point Units (FPUs) (Count: 2 ):
            Area = 2.35571 mm^2
            Peak Dynamic = 0 W
            Subthreshold Leakage = 0.16576 W
            Subthreshold Leakage with power gating = 0.055944 W
            Gate Leakage = 0.0614991 W
            Runtime Dynamic = 0.296664 W

          Complex ALUs (Mul/Div) (Count: 1 ):
            Area = 0.164805 mm^2
            Peak Dynamic = 0 W
            Subthreshold Leakage = 0.0463861 W
            Subthreshold Leakage with power gating = 0.0156553 W
            Gate Leakage = 0.0172098 W
            Runtime Dynamic = 0.197776 W

          Results Broadcast Bus:
            Area Overhead = 0.0245306 mm^2
            Peak Dynamic = 0 W
            Subthreshold Leakage = 0.0233657 W
            Subthreshold Leakage with power gating = 0.00788591 W
            Gate Leakage = 0.00866896 W
            Runtime Dynamic = 0 W

*****************************************************************************************
Core:
      Area = 12.6963 mm^2
      Peak Dynamic = 6.15728 W
      Subthreshold Leakage = 1.14508 W
      Subthreshold Leakage with power gating = 0.431469 W
      Gate Leakage = 0.431123 W
      Runtime Dynamic = 0.593327 W

      Instruction Fetch Unit:
        Area = 3.04058 mm^2
        Peak Dynamic = 0.968076 W
        Subthreshold Leakage = 0.226888 W
        Subthreshold Leakage with power gating = 0.0933342 W
        Gate Leakage = 0.082348 W
        Runtime Dynamic = 6.19764e-09 W

          Instruction Cache:
            Area = 1.60147 mm^2
            Peak Dynamic = 0 W
            Subthreshold Leakage = 0.093335 W
            Subthreshold Leakage with power gating = 0.044301 W
            Gate Leakage = 0.042566 W
            Runtime Dynamic = 0 W

          Branch Target Buffer:
            Area = 0.397072 mm^2
            Peak Dynamic = 0.0840866 W
            Subthreshold Leakage = 0.02173 W
            Subthreshold Leakage with power gating = 0.0105914 W
            Gate Leakage = 0.00551055 W
            Runtime Dynamic = 0 W

          Branch Predictor:
            Area = 0.0686002 mm^2
            Peak Dynamic = 0.0275933 W
            Subthreshold Leakage = 0.00468696 W
            Subthreshold Leakage with power gating = 0.00225328 W
            Gate Leakage = 0.00101062 W
            Runtime Dynamic = 0 W

              Global Predictor:
                Area = 0.0218979 mm^2
                Peak Dynamic = 0.0077921 W
                Subthreshold Leakage = 0.00178236 W
                Subthreshold Leakage with power gating = 0.000855551 W
                Gate Leakage = 0.000370196 W
                Runtime Dynamic = 0 W

              Local Predictor:
              L1_Local Predictor:
                Area = 0.0128884 mm^2
                Peak Dynamic = 0.00653673 W
                Subthreshold Leakage = 0.000903617 W
                Subthreshold Leakage with power gating = 0.000433877 W
                Gate Leakage = 0.000207902 W
                Runtime Dynamic = 0 W

              L2_Local Predictor:
                Area = 0.00661857 mm^2
                Peak Dynamic = 0.00333484 W
                Subthreshold Leakage = 0.000457985 W
                Subthreshold Leakage with power gating = 0.00021904 W
                Gate Leakage = 0.000109414 W
                Runtime Dynamic = 0 W

              Chooser:
                Area = 0.0218979 mm^2
                Peak Dynamic = 0.0077921 W
                Subthreshold Leakage = 0.00178236 W
                Subthreshold Leakage with power gating = 0.000855551 W
                Gate Leakage = 0.000370196 W
                Runtime Dynamic = 0 W

              RAS:
                Area = 0.00529751 mm^2
                Peak Dynamic = 0.00547237 W
                Subthreshold Leakage = 0.000218626 W
                Subthreshold Leakage with power gating = 0.000108298 W
                Gate Leakage = 6.23254e-05 W
                Runtime Dynamic = 0 W

          Instruction Buffer:
            Area = 0.0111146 mm^2
            Peak Dynamic = 0.290305 W
            Subthreshold Leakage = 0.000365712 W
            Subthreshold Leakage with power gating = 0.000153616 W
            Gate Leakage = 9.42121e-05 W
            Runtime Dynamic = 0 W

          Instruction Decoder:
            Area = 0.939544 mm^2
            Peak Dynamic = 0.566091 W
            Subthreshold Leakage = 0.102165 W
            Subthreshold Leakage with power gating = 0.0344807 W
            Gate Leakage = 0.028867 W
            Runtime Dynamic = 0 W

      Renaming Unit:
        Area = 0.187354 mm^2
        Peak Dynamic = 2.14888 W
        Subthreshold Leakage = 0.0176949 W
        Subthreshold Leakage with power gating = 0.00901078 W
        Gate Leakage = 0.0121236 W
        Runtime Dynamic = 6.19764e-09 W

          Int Front End RAT:
            Area = 0.0583904 mm^2
            Peak Dynamic = 0.386173 W
            Subthreshold Leakage = 0.00151853 W
            Subthreshold Leakage with power gating = 0.000865565 W
            Gate Leakage = 0.000537576 W
            Runtime Dynamic = 0 W

          FP Front End RAT:
            Area = 0.0852001 mm^2
            Peak Dynamic = 1.61287 W
            Subthreshold Leakage = 0.0114141 W
            Subthreshold Leakage with power gating = 0.00650604 W
            Gate Leakage = 0.00723124 W
            Runtime Dynamic = 0 W

          Free List:
            Area = 0.0209802 mm^2
            Peak Dynamic = 0.0187401 W
            Subthreshold Leakage = 0.000157165 W
            Subthreshold Leakage with power gating = 8.49701e-05 W
            Gate Leakage = 5.50825e-05 W
            Runtime Dynamic = 0 W

      Load Store Unit:
        Area = 1.98568 mm^2
        Peak Dynamic = 0.610437 W
        Subthreshold Leakage = 0.0912613 W
        Subthreshold Leakage with power gating = 0.0480116 W
        Gate Leakage = 0.0319237 W
        Runtime Dynamic = 6.19764e-09 W

          Data Cache:
            Area = 1.5316 mm^2
            Peak Dynamic = 0.610437 W
            Subthreshold Leakage = 0.0809419 W
            Subthreshold Leakage with power gating = 0.0432002 W
            Gate Leakage = 0.025643 W
            Runtime Dynamic = 0 W

          LoadQ:
            Area = 0.0430063 mm^2
            Peak Dynamic = 0 W
            Subthreshold Leakage = 0.00238113 W
            Subthreshold Leakage with power gating = 0.00135725 W
            Gate Leakage = 0.000855022 W
            Runtime Dynamic = 0 W

          StoreQ:
            Area = 0.0515274 mm^2
            Peak Dynamic = 0 W
            Subthreshold Leakage = 0.00333321 W
            Subthreshold Leakage with power gating = 0.00189993 W
            Gate Leakage = 0.00112608 W
            Runtime Dynamic = 0 W

      Memory Management Unit:
        Area = 0.100456 mm^2
        Peak Dynamic = 0.0655457 W
        Subthreshold Leakage = 0.0106657 W
        Subthreshold Leakage with power gating = 0.00500875 W
        Gate Leakage = 0.0062802 W
        Runtime Dynamic = 6.19764e-09 W

          Itlb:
            Area = 0.0319967 mm^2
            Peak Dynamic = 0 W
            Subthreshold Leakage = 0.00232604 W
            Subthreshold Leakage with power gating = 0.00132584 W
            Gate Leakage = 0.000775623 W
            Runtime Dynamic = 0 W

          Dtlb:
            Area = 0.0456762 mm^2
            Peak Dynamic = 0 W
            Subthreshold Leakage = 0.00373455 W
            Subthreshold Leakage with power gating = 0.00212869 W
            Gate Leakage = 0.00120491 W
            Runtime Dynamic = 0 W

      Execution Unit:
        Area = 4.30453 mm^2
        Peak Dynamic = 2.36434 W
        Subthreshold Leakage = 0.36545 W
        Subthreshold Leakage with power gating = 0.129924 W
        Gate Leakage = 0.137753 W
        Runtime Dynamic = 0.593327 W

          Register Files:
            Area = 0.293668 mm^2
            Peak Dynamic = 0 W
            Subthreshold Leakage = 0.00262543 W
            Subthreshold Leakage with power gating = 0.000992351 W
            Gate Leakage = 0.00090702 W
            Runtime Dynamic = 0 W

              Integer RF:
                Area = 0.186234 mm^2
                Peak Dynamic = 0 W
                Subthreshold Leakage = 0.00159167 W
                Subthreshold Leakage with power gating = 0.000581031 W
                Gate Leakage = 0.000571424 W
                Runtime Dynamic = 0 W

              Floating Point RF:
                Area = 0.107434 mm^2
                Peak Dynamic = 0 W
                Subthreshold Leakage = 0.00103377 W
                Subthreshold Leakage with power gating = 0.00041132 W
                Gate Leakage = 0.000335596 W
                Runtime Dynamic = 0 W

          Instruction Scheduler:
            Area = 1.11343 mm^2
            Peak Dynamic = 2.36434 W
            Subthreshold Leakage = 0.0299356 W
            Subthreshold Leakage with power gating = 0.0165819 W
            Gate Leakage = 0.0107484 W
            Runtime Dynamic = 0 W

              Instruction Window:
                Area = 0.519531 mm^2
                Peak Dynamic = 1.01319 W
                Subthreshold Leakage = 0.0210861 W
                Subthreshold Leakage with power gating = 0.0119994 W
                Gate Leakage = 0.00784113 W
                Runtime Dynamic = 0 W

              FP Instruction Window:
                Area = 0.167689 mm^2
                Peak Dynamic = 0.592068 W
                Subthreshold Leakage = 0.00447456 W
                Subthreshold Leakage with power gating = 0.00253081 W
                Gate Leakage = 0.0017016 W
                Runtime Dynamic = 0 W

              ROB:
                Area = 0.426209 mm^2
                Peak Dynamic = 0.75908 W
                Subthreshold Leakage = 0.00437495 W
                Subthreshold Leakage with power gating = 0.0020517 W
                Gate Leakage = 0.00120572 W
                Runtime Dynamic = 0 W

          Integer ALUs (Count: 6 ):
            Area = 0.329609 mm^2
            Peak Dynamic = 0 W
            Subthreshold Leakage = 0.0927722 W
            Subthreshold Leakage with power gating = 0.0313106 W
            Gate Leakage = 0.0344197 W
            Runtime Dynamic = 0.0988879 W

          Floating Point Units (FPUs) (Count: 2 ):
            Area = 2.35571 mm^2
            Peak Dynamic = 0 W
            Subthreshold Leakage = 0.16576 W
            Subthreshold Leakage with power gating = 0.055944 W
            Gate Leakage = 0.0614991 W
            Runtime Dynamic = 0.296664 W

          Complex ALUs (Mul/Div) (Count: 1 ):
            Area = 0.164805 mm^2
            Peak Dynamic = 0 W
            Subthreshold Leakage = 0.0463861 W
            Subthreshold Leakage with power gating = 0.0156553 W
            Gate Leakage = 0.0172098 W
            Runtime Dynamic = 0.197776 W

          Results Broadcast Bus:
            Area Overhead = 0.0245306 mm^2
            Peak Dynamic = 0 W
            Subthreshold Leakage = 0.0233657 W
            Subthreshold Leakage with power gating = 0.00788591 W
            Gate Leakage = 0.00866896 W
            Runtime Dynamic = 0 W

*****************************************************************************************
Core:
      Area = 12.6963 mm^2
      Peak Dynamic = 6.15728 W
      Subthreshold Leakage = 1.14508 W
      Subthreshold Leakage with power gating = 0.431469 W
      Gate Leakage = 0.431123 W
      Runtime Dynamic = 0.593327 W

      Instruction Fetch Unit:
        Area = 3.04058 mm^2
        Peak Dynamic = 0.968076 W
        Subthreshold Leakage = 0.226888 W
        Subthreshold Leakage with power gating = 0.0933342 W
        Gate Leakage = 0.082348 W
        Runtime Dynamic = 6.19764e-09 W

          Instruction Cache:
            Area = 1.60147 mm^2
            Peak Dynamic = 0 W
            Subthreshold Leakage = 0.093335 W
            Subthreshold Leakage with power gating = 0.044301 W
            Gate Leakage = 0.042566 W
            Runtime Dynamic = 0 W

          Branch Target Buffer:
            Area = 0.397072 mm^2
            Peak Dynamic = 0.0840866 W
            Subthreshold Leakage = 0.02173 W
            Subthreshold Leakage with power gating = 0.0105914 W
            Gate Leakage = 0.00551055 W
            Runtime Dynamic = 0 W

          Branch Predictor:
            Area = 0.0686002 mm^2
            Peak Dynamic = 0.0275933 W
            Subthreshold Leakage = 0.00468696 W
            Subthreshold Leakage with power gating = 0.00225328 W
            Gate Leakage = 0.00101062 W
            Runtime Dynamic = 0 W

              Global Predictor:
                Area = 0.0218979 mm^2
                Peak Dynamic = 0.0077921 W
                Subthreshold Leakage = 0.00178236 W
                Subthreshold Leakage with power gating = 0.000855551 W
                Gate Leakage = 0.000370196 W
                Runtime Dynamic = 0 W

              Local Predictor:
              L1_Local Predictor:
                Area = 0.0128884 mm^2
                Peak Dynamic = 0.00653673 W
                Subthreshold Leakage = 0.000903617 W
                Subthreshold Leakage with power gating = 0.000433877 W
                Gate Leakage = 0.000207902 W
                Runtime Dynamic = 0 W

              L2_Local Predictor:
                Area = 0.00661857 mm^2
                Peak Dynamic = 0.00333484 W
                Subthreshold Leakage = 0.000457985 W
                Subthreshold Leakage with power gating = 0.00021904 W
                Gate Leakage = 0.000109414 W
                Runtime Dynamic = 0 W

              Chooser:
                Area = 0.0218979 mm^2
                Peak Dynamic = 0.0077921 W
                Subthreshold Leakage = 0.00178236 W
                Subthreshold Leakage with power gating = 0.000855551 W
                Gate Leakage = 0.000370196 W
                Runtime Dynamic = 0 W

              RAS:
                Area = 0.00529751 mm^2
                Peak Dynamic = 0.00547237 W
                Subthreshold Leakage = 0.000218626 W
                Subthreshold Leakage with power gating = 0.000108298 W
                Gate Leakage = 6.23254e-05 W
                Runtime Dynamic = 0 W

          Instruction Buffer:
            Area = 0.0111146 mm^2
            Peak Dynamic = 0.290305 W
            Subthreshold Leakage = 0.000365712 W
            Subthreshold Leakage with power gating = 0.000153616 W
            Gate Leakage = 9.42121e-05 W
            Runtime Dynamic = 0 W

          Instruction Decoder:
            Area = 0.939544 mm^2
            Peak Dynamic = 0.566091 W
            Subthreshold Leakage = 0.102165 W
            Subthreshold Leakage with power gating = 0.0344807 W
            Gate Leakage = 0.028867 W
            Runtime Dynamic = 0 W

      Renaming Unit:
        Area = 0.187354 mm^2
        Peak Dynamic = 2.14888 W
        Subthreshold Leakage = 0.0176949 W
        Subthreshold Leakage with power gating = 0.00901078 W
        Gate Leakage = 0.0121236 W
        Runtime Dynamic = 6.19764e-09 W

          Int Front End RAT:
            Area = 0.0583904 mm^2
            Peak Dynamic = 0.386173 W
            Subthreshold Leakage = 0.00151853 W
            Subthreshold Leakage with power gating = 0.000865565 W
            Gate Leakage = 0.000537576 W
            Runtime Dynamic = 0 W

          FP Front End RAT:
            Area = 0.0852001 mm^2
            Peak Dynamic = 1.61287 W
            Subthreshold Leakage = 0.0114141 W
            Subthreshold Leakage with power gating = 0.00650604 W
            Gate Leakage = 0.00723124 W
            Runtime Dynamic = 0 W

          Free List:
            Area = 0.0209802 mm^2
            Peak Dynamic = 0.0187401 W
            Subthreshold Leakage = 0.000157165 W
            Subthreshold Leakage with power gating = 8.49701e-05 W
            Gate Leakage = 5.50825e-05 W
            Runtime Dynamic = 0 W

      Load Store Unit:
        Area = 1.98568 mm^2
        Peak Dynamic = 0.610437 W
        Subthreshold Leakage = 0.0912613 W
        Subthreshold Leakage with power gating = 0.0480116 W
        Gate Leakage = 0.0319237 W
        Runtime Dynamic = 6.19764e-09 W

          Data Cache:
            Area = 1.5316 mm^2
            Peak Dynamic = 0.610437 W
            Subthreshold Leakage = 0.0809419 W
            Subthreshold Leakage with power gating = 0.0432002 W
            Gate Leakage = 0.025643 W
            Runtime Dynamic = 0 W

          LoadQ:
            Area = 0.0430063 mm^2
            Peak Dynamic = 0 W
            Subthreshold Leakage = 0.00238113 W
            Subthreshold Leakage with power gating = 0.00135725 W
            Gate Leakage = 0.000855022 W
            Runtime Dynamic = 0 W

          StoreQ:
            Area = 0.0515274 mm^2
            Peak Dynamic = 0 W
            Subthreshold Leakage = 0.00333321 W
            Subthreshold Leakage with power gating = 0.00189993 W
            Gate Leakage = 0.00112608 W
            Runtime Dynamic = 0 W

      Memory Management Unit:
        Area = 0.100456 mm^2
        Peak Dynamic = 0.0655457 W
        Subthreshold Leakage = 0.0106657 W
        Subthreshold Leakage with power gating = 0.00500875 W
        Gate Leakage = 0.0062802 W
        Runtime Dynamic = 6.19764e-09 W

          Itlb:
            Area = 0.0319967 mm^2
            Peak Dynamic = 0 W
            Subthreshold Leakage = 0.00232604 W
            Subthreshold Leakage with power gating = 0.00132584 W
            Gate Leakage = 0.000775623 W
            Runtime Dynamic = 0 W

          Dtlb:
            Area = 0.0456762 mm^2
            Peak Dynamic = 0 W
            Subthreshold Leakage = 0.00373455 W
            Subthreshold Leakage with power gating = 0.00212869 W
            Gate Leakage = 0.00120491 W
            Runtime Dynamic = 0 W

      Execution Unit:
        Area = 4.30453 mm^2
        Peak Dynamic = 2.36434 W
        Subthreshold Leakage = 0.36545 W
        Subthreshold Leakage with power gating = 0.129924 W
        Gate Leakage = 0.137753 W
        Runtime Dynamic = 0.593327 W

          Register Files:
            Area = 0.293668 mm^2
            Peak Dynamic = 0 W
            Subthreshold Leakage = 0.00262543 W
            Subthreshold Leakage with power gating = 0.000992351 W
            Gate Leakage = 0.00090702 W
            Runtime Dynamic = 0 W

              Integer RF:
                Area = 0.186234 mm^2
                Peak Dynamic = 0 W
                Subthreshold Leakage = 0.00159167 W
                Subthreshold Leakage with power gating = 0.000581031 W
                Gate Leakage = 0.000571424 W
                Runtime Dynamic = 0 W

              Floating Point RF:
                Area = 0.107434 mm^2
                Peak Dynamic = 0 W
                Subthreshold Leakage = 0.00103377 W
                Subthreshold Leakage with power gating = 0.00041132 W
                Gate Leakage = 0.000335596 W
                Runtime Dynamic = 0 W

          Instruction Scheduler:
            Area = 1.11343 mm^2
            Peak Dynamic = 2.36434 W
            Subthreshold Leakage = 0.0299356 W
            Subthreshold Leakage with power gating = 0.0165819 W
            Gate Leakage = 0.0107484 W
            Runtime Dynamic = 0 W

              Instruction Window:
                Area = 0.519531 mm^2
                Peak Dynamic = 1.01319 W
                Subthreshold Leakage = 0.0210861 W
                Subthreshold Leakage with power gating = 0.0119994 W
                Gate Leakage = 0.00784113 W
                Runtime Dynamic = 0 W

              FP Instruction Window:
                Area = 0.167689 mm^2
                Peak Dynamic = 0.592068 W
                Subthreshold Leakage = 0.00447456 W
                Subthreshold Leakage with power gating = 0.00253081 W
                Gate Leakage = 0.0017016 W
                Runtime Dynamic = 0 W

              ROB:
                Area = 0.426209 mm^2
                Peak Dynamic = 0.75908 W
                Subthreshold Leakage = 0.00437495 W
                Subthreshold Leakage with power gating = 0.0020517 W
                Gate Leakage = 0.00120572 W
                Runtime Dynamic = 0 W

          Integer ALUs (Count: 6 ):
            Area = 0.329609 mm^2
            Peak Dynamic = 0 W
            Subthreshold Leakage = 0.0927722 W
            Subthreshold Leakage with power gating = 0.0313106 W
            Gate Leakage = 0.0344197 W
            Runtime Dynamic = 0.0988879 W

          Floating Point Units (FPUs) (Count: 2 ):
            Area = 2.35571 mm^2
            Peak Dynamic = 0 W
            Subthreshold Leakage = 0.16576 W
            Subthreshold Leakage with power gating = 0.055944 W
            Gate Leakage = 0.0614991 W
            Runtime Dynamic = 0.296664 W

          Complex ALUs (Mul/Div) (Count: 1 ):
            Area = 0.164805 mm^2
            Peak Dynamic = 0 W
            Subthreshold Leakage = 0.0463861 W
            Subthreshold Leakage with power gating = 0.0156553 W
            Gate Leakage = 0.0172098 W
            Runtime Dynamic = 0.197776 W

          Results Broadcast Bus:
            Area Overhead = 0.0245306 mm^2
            Peak Dynamic = 0 W
            Subthreshold Leakage = 0.0233657 W
            Subthreshold Leakage with power gating = 0.00788591 W
            Gate Leakage = 0.00866896 W
            Runtime Dynamic = 0 W

*****************************************************************************************
Core:
      Area = 12.6963 mm^2
      Peak Dynamic = 6.15728 W
      Subthreshold Leakage = 1.14508 W
      Subthreshold Leakage with power gating = 0.431469 W
      Gate Leakage = 0.431123 W
      Runtime Dynamic = 0.593327 W

      Instruction Fetch Unit:
        Area = 3.04058 mm^2
        Peak Dynamic = 0.968076 W
        Subthreshold Leakage = 0.226888 W
        Subthreshold Leakage with power gating = 0.0933342 W
        Gate Leakage = 0.082348 W
        Runtime Dynamic = 6.19764e-09 W

          Instruction Cache:
            Area = 1.60147 mm^2
            Peak Dynamic = 0 W
            Subthreshold Leakage = 0.093335 W
            Subthreshold Leakage with power gating = 0.044301 W
            Gate Leakage = 0.042566 W
            Runtime Dynamic = 0 W

          Branch Target Buffer:
            Area = 0.397072 mm^2
            Peak Dynamic = 0.0840866 W
            Subthreshold Leakage = 0.02173 W
            Subthreshold Leakage with power gating = 0.0105914 W
            Gate Leakage = 0.00551055 W
            Runtime Dynamic = 0 W

          Branch Predictor:
            Area = 0.0686002 mm^2
            Peak Dynamic = 0.0275933 W
            Subthreshold Leakage = 0.00468696 W
            Subthreshold Leakage with power gating = 0.00225328 W
            Gate Leakage = 0.00101062 W
            Runtime Dynamic = 0 W

              Global Predictor:
                Area = 0.0218979 mm^2
                Peak Dynamic = 0.0077921 W
                Subthreshold Leakage = 0.00178236 W
                Subthreshold Leakage with power gating = 0.000855551 W
                Gate Leakage = 0.000370196 W
                Runtime Dynamic = 0 W

              Local Predictor:
              L1_Local Predictor:
                Area = 0.0128884 mm^2
                Peak Dynamic = 0.00653673 W
                Subthreshold Leakage = 0.000903617 W
                Subthreshold Leakage with power gating = 0.000433877 W
                Gate Leakage = 0.000207902 W
                Runtime Dynamic = 0 W

              L2_Local Predictor:
                Area = 0.00661857 mm^2
                Peak Dynamic = 0.00333484 W
                Subthreshold Leakage = 0.000457985 W
                Subthreshold Leakage with power gating = 0.00021904 W
                Gate Leakage = 0.000109414 W
                Runtime Dynamic = 0 W

              Chooser:
                Area = 0.0218979 mm^2
                Peak Dynamic = 0.0077921 W
                Subthreshold Leakage = 0.00178236 W
                Subthreshold Leakage with power gating = 0.000855551 W
                Gate Leakage = 0.000370196 W
                Runtime Dynamic = 0 W

              RAS:
                Area = 0.00529751 mm^2
                Peak Dynamic = 0.00547237 W
                Subthreshold Leakage = 0.000218626 W
                Subthreshold Leakage with power gating = 0.000108298 W
                Gate Leakage = 6.23254e-05 W
                Runtime Dynamic = 0 W

          Instruction Buffer:
            Area = 0.0111146 mm^2
            Peak Dynamic = 0.290305 W
            Subthreshold Leakage = 0.000365712 W
            Subthreshold Leakage with power gating = 0.000153616 W
            Gate Leakage = 9.42121e-05 W
            Runtime Dynamic = 0 W

          Instruction Decoder:
            Area = 0.939544 mm^2
            Peak Dynamic = 0.566091 W
            Subthreshold Leakage = 0.102165 W
            Subthreshold Leakage with power gating = 0.0344807 W
            Gate Leakage = 0.028867 W
            Runtime Dynamic = 0 W

      Renaming Unit:
        Area = 0.187354 mm^2
        Peak Dynamic = 2.14888 W
        Subthreshold Leakage = 0.0176949 W
        Subthreshold Leakage with power gating = 0.00901078 W
        Gate Leakage = 0.0121236 W
        Runtime Dynamic = 6.19764e-09 W

          Int Front End RAT:
            Area = 0.0583904 mm^2
            Peak Dynamic = 0.386173 W
            Subthreshold Leakage = 0.00151853 W
            Subthreshold Leakage with power gating = 0.000865565 W
            Gate Leakage = 0.000537576 W
            Runtime Dynamic = 0 W

          FP Front End RAT:
            Area = 0.0852001 mm^2
[...]
            Subthreshold Leakage with power gating = 8.49701e-05 W
            Gate Leakage = 5.50825e-05 W
            Runtime Dynamic = 0 W

      Load Store Unit:
        Area = 1.98568 mm^2
        Peak Dynamic = 0.610437 W
        Subthreshold Leakage = 0.0912613 W
        Subthreshold Leakage with power gating = 0.0480116 W
        Gate Leakage = 0.0319237 W
        Runtime Dynamic = 6.19764e-09 W

          Data Cache:
            Area = 1.5316 mm^2
            Peak Dynamic = 0.610437 W
            Subthreshold Leakage = 0.0809419 W
            Subthreshold Leakage with power gating = 0.0432002 W
            Gate Leakage = 0.025643 W
            Runtime Dynamic = 0 W

          LoadQ:
            Area = 0.0430063 mm^2
            Peak Dynamic = 0 W
            Subthreshold Leakage = 0.00238113 W
            Subthreshold Leakage with power gating = 0.00135725 W
            Gate Leakage = 0.000855022 W
            Runtime Dynamic = 0 W

          StoreQ:
            Area = 0.0515274 mm^2
            Peak Dynamic = 0 W
            Subthreshold Leakage = 0.00333321 W
            Subthreshold Leakage with power gating = 0.00189993 W
            Gate Leakage = 0.00112608 W
            Runtime Dynamic = 0 W

      Memory Management Unit:
        Area = 0.100456 mm^2
        Peak Dynamic = 0.0655457 W
        Subthreshold Leakage = 0.0106657 W
        Subthreshold Leakage with power gating = 0.00500875 W
        Gate Leakage = 0.0062802 W
        Runtime Dynamic = 6.19764e-09 W

          Itlb:
            Area = 0.0319967 mm^2
            Peak Dynamic = 0 W
            Subthreshold Leakage = 0.00232604 W
            Subthreshold Leakage with power gating = 0.00132584 W
            Gate Leakage = 0.000775623 W
            Runtime Dynamic = 0 W

          Dtlb:
            Area = 0.0456762 mm^2
            Peak Dynamic = 0 W
            Subthreshold Leakage = 0.00373455 W
            Subthreshold Leakage with power gating = 0.00212869 W
            Gate Leakage = 0.00120491 W
            Runtime Dynamic = 0 W

      Execution Unit:
        Area = 4.30453 mm^2
        Peak Dynamic = 2.36434 W
        Subthreshold Leakage = 0.36545 W
        Subthreshold Leakage with power gating = 0.129924 W
        Gate Leakage = 0.137753 W
        Runtime Dynamic = 0.593327 W

          Register Files:
            Area = 0.293668 mm^2
            Peak Dynamic = 0 W
            Subthreshold Leakage = 0.00262543 W
            Subthreshold Leakage with power gating = 0.000992351 W
            Gate Leakage = 0.00090702 W
            Runtime Dynamic = 0 W

              Integer RF:
                Area = 0.186234 mm^2
                Peak Dynamic = 0 W
                Subthreshold Leakage = 0.00159167 W
                Subthreshold Leakage with power gating = 0.000581031 W
                Gate Leakage = 0.000571424 W
                Runtime Dynamic = 0 W

              Floating Point RF:
                Area = 0.107434 mm^2
                Peak Dynamic = 0 W
                Subthreshold Leakage = 0.00103377 W
                Subthreshold Leakage with power gating = 0.00041132 W
                Gate Leakage = 0.000335596 W
                Runtime Dynamic = 0 W

          Instruction Scheduler:
            Area = 1.11343 mm^2
            Peak Dynamic = 2.36434 W
            Subthreshold Leakage = 0.0299356 W
            Subthreshold Leakage with power gating = 0.0165819 W
            Gate Leakage = 0.0107484 W
            Runtime Dynamic = 0 W

              Instruction Window:
                Area = 0.519531 mm^2
                Peak Dynamic = 1.01319 W
                Subthreshold Leakage = 0.0210861 W
                Subthreshold Leakage with power gating = 0.0119994 W
                Gate Leakage = 0.00784113 W
                Runtime Dynamic = 0 W

              FP Instruction Window:
                Area = 0.167689 mm^2
                Peak Dynamic = 0.592068 W
                Subthreshold Leakage = 0.00447456 W
                Subthreshold Leakage with power gating = 0.00253081 W
                Gate Leakage = 0.0017016 W
                Runtime Dynamic = 0 W

              ROB:
                Area = 0.426209 mm^2
                Peak Dynamic = 0.75908 W
                Subthreshold Leakage = 0.00437495 W
                Subthreshold Leakage with power gating = 0.0020517 W
                Gate Leakage = 0.00120572 W
                Runtime Dynamic = 0 W

          Integer ALUs (Count: 6 ):
            Area = 0.329609 mm^2
            Peak Dynamic = 0 W
            Subthreshold Leakage = 0.0927722 W
            Subthreshold Leakage with power gating = 0.0313106 W
            Gate Leakage = 0.0344197 W
            Runtime Dynamic = 0.0988879 W

          Floating Point Units (FPUs) (Count: 2 ):
            Area = 2.35571 mm^2
            Peak Dynamic = 0 W
            Subthreshold Leakage = 0.16576 W
            Subthreshold Leakage with power gating = 0.055944 W
            Gate Leakage = 0.0614991 W
            Runtime Dynamic = 0.296664 W

          Complex ALUs (Mul/Div) (Count: 1 ):
            Area = 0.164805 mm^2
            Peak Dynamic = 0 W
            Subthreshold Leakage = 0.0463861 W
            Subthreshold Leakage with power gating = 0.0156553 W
            Gate Leakage = 0.0172098 W
            Runtime Dynamic = 0.197776 W

          Results Broadcast Bus:
            Area Overhead = 0.0245306 mm^2
            Peak Dynamic = 0 W
            Subthreshold Leakage = 0.0233657 W
            Subthreshold Leakage with power gating = 0.00788591 W
            Gate Leakage = 0.00866896 W
            Runtime Dynamic = 0 W

*****************************************************************************************
Core:
      Area = 12.6963 mm^2
      Peak Dynamic = 6.15728 W
      Subthreshold Leakage = 1.14508 W
      Subthreshold Leakage with power gating = 0.431469 W
      Gate Leakage = 0.431123 W
      Runtime Dynamic = 0.593327 W

      Instruction Fetch Unit:
        Area = 3.04058 mm^2
        Peak Dynamic = 0.968076 W
        Subthreshold Leakage = 0.226888 W
        Subthreshold Leakage with power gating = 0.0933342 W
        Gate Leakage = 0.082348 W
        Runtime Dynamic = 6.19764e-09 W

          Instruction Cache:
            Area = 1.60147 mm^2
            Peak Dynamic = 0 W
            Subthreshold Leakage = 0.093335 W
            Subthreshold Leakage with power gating = 0.044301 W
            Gate Leakage = 0.042566 W
            Runtime Dynamic = 0 W

          Branch Target Buffer:
            Area = 0.397072 mm^2
            Peak Dynamic = 0.0840866 W
            Subthreshold Leakage = 0.02173 W
            Subthreshold Leakage with power gating = 0.0105914 W
            Gate Leakage = 0.00551055 W
            Runtime Dynamic = 0 W

          Branch Predictor:
            Area = 0.0686002 mm^2
            Peak Dynamic = 0.0275933 W
            Subthreshold Leakage = 0.00468696 W
            Subthreshold Leakage with power gating = 0.00225328 W
            Gate Leakage = 0.00101062 W
            Runtime Dynamic = 0 W

              Global Predictor:
                Area = 0.0218979 mm^2
                Peak Dynamic = 0.0077921 W
                Subthreshold Leakage = 0.00178236 W
                Subthreshold Leakage with power gating = 0.000855551 W
                Gate Leakage = 0.000370196 W
                Runtime Dynamic = 0 W

              Local Predictor:
              L1_Local Predictor:
                Area = 0.0128884 mm^2
                Peak Dynamic = 0.00653673 W
                Subthreshold Leakage = 0.000903617 W
                Subthreshold Leakage with power gating = 0.000433877 W
                Gate Leakage = 0.000207902 W
                Runtime Dynamic = 0 W

              L2_Local Predictor:
                Area = 0.00661857 mm^2
                Peak Dynamic = 0.00333484 W
                Subthreshold Leakage = 0.000457985 W
                Subthreshold Leakage with power gating = 0.00021904 W
                Gate Leakage = 0.000109414 W
                Runtime Dynamic = 0 W

              Chooser:
                Area = 0.0218979 mm^2
                Peak Dynamic = 0.0077921 W
                Subthreshold Leakage = 0.00178236 W
                Subthreshold Leakage with power gating = 0.000855551 W
                Gate Leakage = 0.000370196 W
                Runtime Dynamic = 0 W

              RAS:
                Area = 0.00529751 mm^2
                Peak Dynamic = 0.00547237 W
                Subthreshold Leakage = 0.000218626 W
                Subthreshold Leakage with power gating = 0.000108298 W
                Gate Leakage = 6.23254e-05 W
                Runtime Dynamic = 0 W

          Instruction Buffer:
            Area = 0.0111146 mm^2
            Peak Dynamic = 0.290305 W
            Subthreshold Leakage = 0.000365712 W
            Subthreshold Leakage with power gating = 0.000153616 W
            Gate Leakage = 9.42121e-05 W
            Runtime Dynamic = 0 W

          Instruction Decoder:
            Area = 0.939544 mm^2
            Peak Dynamic = 0.566091 W
            Subthreshold Leakage = 0.102165 W
            Subthreshold Leakage with power gating = 0.0344807 W
            Gate Leakage = 0.028867 W
            Runtime Dynamic = 0 W

      Renaming Unit:
        Area = 0.187354 mm^2
        Peak Dynamic = 2.14888 W
        Subthreshold Leakage = 0.0176949 W
        Subthreshold Leakage with power gating = 0.00901078 W
        Gate Leakage = 0.0121236 W
        Runtime Dynamic = 6.19764e-09 W

          Int Front End RAT:
            Area = 0.0583904 mm^2
            Peak Dynamic = 0.386173 W
            Subthreshold Leakage = 0.00151853 W
            Subthreshold Leakage with power gating = 0.000865565 W
            Gate Leakage = 0.000537576 W
            Runtime Dynamic = 0 W

          FP Front End RAT:
            Area = 0.0852001 mm^2
            Peak Dynamic = 1.61287 W
            Subthreshold Leakage = 0.0114141 W
            Subthreshold Leakage with power gating = 0.00650604 W
            Gate Leakage = 0.00723124 W
            Runtime Dynamic = 0 W

          Free List:
            Area = 0.0209802 mm^2
            Peak Dynamic = 0.0187401 W
            Subthreshold Leakage = 0.000157165 W
            Subthreshold Leakage with power gating = 8.49701e-05 W
            Gate Leakage = 5.50825e-05 W
            Runtime Dynamic = 0 W

      Load Store Unit:
        Area = 1.98568 mm^2
        Peak Dynamic = 0.610437 W
        Subthreshold Leakage = 0.0912613 W
        Subthreshold Leakage with power gating = 0.0480116 W
        Gate Leakage = 0.0319237 W
        Runtime Dynamic = 6.19764e-09 W

          Data Cache:
            Area = 1.5316 mm^2
            Peak Dynamic = 0.610437 W
            Subthreshold Leakage = 0.0809419 W
            Subthreshold Leakage with power gating = 0.0432002 W
            Gate Leakage = 0.025643 W
            Runtime Dynamic = 0 W

          LoadQ:
            Area = 0.0430063 mm^2
            Peak Dynamic = 0 W
            Subthreshold Leakage = 0.00238113 W
            Subthreshold Leakage with power gating = 0.00135725 W
            Gate Leakage = 0.000855022 W
            Runtime Dynamic = 0 W

          StoreQ:
            Area = 0.0515274 mm^2
            Peak Dynamic = 0 W
            Subthreshold Leakage = 0.00333321 W
            Subthreshold Leakage with power gating = 0.00189993 W
            Gate Leakage = 0.00112608 W
            Runtime Dynamic = 0 W

      Memory Management Unit:
        Area = 0.100456 mm^2
        Peak Dynamic = 0.0655457 W
        Subthreshold Leakage = 0.0106657 W
        Subthreshold Leakage with power gating = 0.00500875 W
        Gate Leakage = 0.0062802 W
        Runtime Dynamic = 6.19764e-09 W

          Itlb:
            Area = 0.0319967 mm^2
            Peak Dynamic = 0 W
            Subthreshold Leakage = 0.00232604 W
            Subthreshold Leakage with power gating = 0.00132584 W
            Gate Leakage = 0.000775623 W
            Runtime Dynamic = 0 W

          Dtlb:
            Area = 0.0456762 mm^2
            Peak Dynamic = 0 W
            Subthreshold Leakage = 0.00373455 W
            Subthreshold Leakage with power gating = 0.00212869 W
            Gate Leakage = 0.00120491 W
            Runtime Dynamic = 0 W

      Execution Unit:
        Area = 4.30453 mm^2
        Peak Dynamic = 2.36434 W
        Subthreshold Leakage = 0.36545 W
        Subthreshold Leakage with power gating = 0.129924 W
        Gate Leakage = 0.137753 W
        Runtime Dynamic = 0.593327 W

          Register Files:
            Area = 0.293668 mm^2
            Peak Dynamic = 0 W
            Subthreshold Leakage = 0.00262543 W
            Subthreshold Leakage with power gating = 0.000992351 W
            Gate Leakage = 0.00090702 W
            Runtime Dynamic = 0 W

              Integer RF:
                Area = 0.186234 mm^2
                Peak Dynamic = 0 W
                Subthreshold Leakage = 0.00159167 W
                Subthreshold Leakage with power gating = 0.000581031 W
                Gate Leakage = 0.000571424 W
                Runtime Dynamic = 0 W

              Floating Point RF:
                Area = 0.107434 mm^2
                Peak Dynamic = 0 W
                Subthreshold Leakage = 0.00103377 W
                Subthreshold Leakage with power gating = 0.00041132 W
                Gate Leakage = 0.000335596 W
                Runtime Dynamic = 0 W

          Instruction Scheduler:
            Area = 1.11343 mm^2
            Peak Dynamic = 2.36434 W
            Subthreshold Leakage = 0.0299356 W
            Subthreshold Leakage with power gating = 0.0165819 W
            Gate Leakage = 0.0107484 W
            Runtime Dynamic = 0 W

              Instruction Window:
                Area = 0.519531 mm^2
                Peak Dynamic = 1.01319 W
                Subthreshold Leakage = 0.0210861 W
                Subthreshold Leakage with power gating = 0.0119994 W
                Gate Leakage = 0.00784113 W
                Runtime Dynamic = 0 W

              FP Instruction Window:
                Area = 0.167689 mm^2
                Peak Dynamic = 0.592068 W
                Subthreshold Leakage = 0.00447456 W
                Subthreshold Leakage with power gating = 0.00253081 W
                Gate Leakage = 0.0017016 W
                Runtime Dynamic = 0 W

              ROB:
                Area = 0.426209 mm^2
                Peak Dynamic = 0.75908 W
                Subthreshold Leakage = 0.00437495 W
                Subthreshold Leakage with power gating = 0.0020517 W
                Gate Leakage = 0.00120572 W
                Runtime Dynamic = 0 W

          Integer ALUs (Count: 6 ):
            Area = 0.329609 mm^2
            Peak Dynamic = 0 W
            Subthreshold Leakage = 0.0927722 W
            Subthreshold Leakage with power gating = 0.0313106 W
            Gate Leakage = 0.0344197 W
            Runtime Dynamic = 0.0988879 W

          Floating Point Units (FPUs) (Count: 2 ):
            Area = 2.35571 mm^2
            Peak Dynamic = 0 W
            Subthreshold Leakage = 0.16576 W
            Subthreshold Leakage with power gating = 0.055944 W
            Gate Leakage = 0.0614991 W
            Runtime Dynamic = 0.296664 W

          Complex ALUs (Mul/Div) (Count: 1 ):
            Area = 0.164805 mm^2
            Peak Dynamic = 0 W
            Subthreshold Leakage = 0.0463861 W
            Subthreshold Leakage with power gating = 0.0156553 W
            Gate Leakage = 0.0172098 W
            Runtime Dynamic = 0.197776 W

          Results Broadcast Bus:
            Area Overhead = 0.0245306 mm^2
            Peak Dynamic = 0 W
            Subthreshold Leakage = 0.0233657 W
            Subthreshold Leakage with power gating = 0.00788591 W
            Gate Leakage = 0.00866896 W
            Runtime Dynamic = 0 W

*****************************************************************************************
L2
      Area = 4.9501 mm^2
      Peak Dynamic = 0.0199949 W
      Subthreshold Leakage = 0.244094 W
      Subthreshold Leakage with power gating = 0.118523 W
      Gate Leakage = 0.0322167 W
      Runtime Dynamic = 0.0126357 W

*****************************************************************************************
L2
      Area = 4.9501 mm^2
      Peak Dynamic = 0 W
      Subthreshold Leakage = 0.244094 W
      Subthreshold Leakage with power gating = 0.118523 W
      Gate Leakage = 0.0322167 W
      Runtime Dynamic = 4.67945e-08 W

*****************************************************************************************
L2
      Area = 4.9501 mm^2
      Peak Dynamic = 0 W
      Subthreshold Leakage = 0.244094 W
      Subthreshold Leakage with power gating = 0.118523 W
      Gate Leakage = 0.0322167 W
      Runtime Dynamic = 4.67945e-08 W

*****************************************************************************************
L2
      Area = 4.9501 mm^2
      Peak Dynamic = 0 W
      Subthreshold Leakage = 0.244094 W
      Subthreshold Leakage with power gating = 0.118523 W
      Gate Leakage = 0.0322167 W
      Runtime Dynamic = 4.67945e-08 W

*****************************************************************************************
L2
      Area = 4.9501 mm^2
      Peak Dynamic = 0 W
      Subthreshold Leakage = 0.244094 W
      Subthreshold Leakage with power gating = 0.118523 W
      Gate Leakage = 0.0322167 W
      Runtime Dynamic = 4.67945e-08 W

*****************************************************************************************
L2
      Area = 4.9501 mm^2
      Peak Dynamic = 0 W
      Subthreshold Leakage = 0.244094 W
      Subthreshold Leakage with power gating = 0.118523 W
      Gate Leakage = 0.0322167 W
      Runtime Dynamic = 4.67945e-08 W

*****************************************************************************************
L2
      Area = 4.9501 mm^2
      Peak Dynamic = 0 W
      Subthreshold Leakage = 0.244094 W
      Subthreshold Leakage with power gating = 0.118523 W
      Gate Leakage = 0.0322167 W
      Runtime Dynamic = 4.67945e-08 W

*****************************************************************************************
L2
      Area = 4.9501 mm^2
      Peak Dynamic = 0 W
      Subthreshold Leakage = 0.244094 W
      Subthreshold Leakage with power gating = 0.118523 W
      Gate Leakage = 0.0322167 W
      Runtime Dynamic = 4.67945e-08 W

*****************************************************************************************
NOC
      Area = 0.0870126 mm^2
      Peak Dynamic = 0.00304641 W
      Subthreshold Leakage = 0.00149161 W
      Subthreshold Leakage with power gating = 0.000850216 W
      Gate Leakage = 0.00102695 W
      Runtime Dynamic = 0.00384587 W

      Router: 
        Area = 0.0870126 mm^2
        Peak Dynamic = 0.00304641 W
        Subthreshold Leakage = 0.00149161 W
        Subthreshold Leakage with power gating = 0.000850216 W
        Gate Leakage = 0.00102695 W
        Runtime Dynamic = 0.00384587 W

            Virtual Channel Buffer:
              Area = 0.0686472 mm^2
              Peak Dynamic = 0.00230039 W
              Subthreshold Leakage = 0.000593759 W
              Subthreshold Leakage with power gating = 0.000338443 W
              Gate Leakage = 0.000325423 W
              Runtime Dynamic = 0.00290408 W

            Crossbar:
              Area = 0.00429497 mm^2
              Peak Dynamic = 0.00074362 W
              Subthreshold Leakage = 0.000897736 W
              Subthreshold Leakage with power gating = 0.00051171 W
              Gate Leakage = 0.00070146 W
              Runtime Dynamic = 0.000938767 W

            Arbiter:
              Peak Dynamic = 2.39424e-06 W
              Subthreshold Leakage = 1.12342e-07 W
              Subthreshold Leakage with power gating = 0.00051171 W
              Gate Leakage = 6.39245e-08 W
              Runtime Dynamic = 3.02256e-06 W

*****************************************************************************************
