McPAT (version 1.0 of Aug, 2013) is computing the target processor...
 
Warning: icache array structure cannot satisfy latency constraint.
Warning: icache array structure cannot satisfy latency constraint.
Warning: icache array structure cannot satisfy latency constraint.
Warning: icache array structure cannot satisfy latency constraint.
Warning: icache array structure cannot satisfy latency constraint.
Warning: icache array structure cannot satisfy latency constraint.
Warning: icache array structure cannot satisfy latency constraint.
Warning: icache array structure cannot satisfy latency constraint.
Warning: icache array structure cannot satisfy latency constraint.
Warning: icache array structure cannot satisfy latency constraint.
Warning: icache array structure cannot satisfy latency constraint.
Warning: icache array structure cannot satisfy latency constraint.
Warning: icache array structure cannot satisfy latency constraint.
Warning: icache array structure cannot satisfy latency constraint.
Warning: icache array structure cannot satisfy latency constraint.
Warning: icache array structure cannot satisfy latency constraint.
Warning: icache array structure cannot satisfy latency constraint.
Warning: icache array structure cannot satisfy latency constraint.
Warning: icache array structure cannot satisfy latency constraint.
Warning: icache array structure cannot satisfy latency constraint.
Warning: icache array structure cannot satisfy latency constraint.
Warning: icache array structure cannot satisfy latency constraint.
Warning: icache array structure cannot satisfy latency constraint.
Warning: icache array structure cannot satisfy latency constraint.
Warning: icache array structure cannot satisfy latency constraint.
Warning: icache array structure cannot satisfy latency constraint.
Warning: icache array structure cannot satisfy latency constraint.
Warning: icache array structure cannot satisfy latency constraint.
Warning: icache array structure cannot satisfy latency constraint.
Warning: icache array structure cannot satisfy latency constraint.
Warning: icache array structure cannot satisfy latency constraint.
Warning: icache array structure cannot satisfy latency constraint.

McPAT (version 1.0 of Aug, 2013) results  (current print level is 5)
*****************************************************************************************
  Technology 32 nm
  Using Long Channel Devices When Appropriate
  Interconnect metal projection= aggressive interconnect technology projection
  Core clock Rate(MHz) 2000

*****************************************************************************************
Processor: 
  Area = 446.322 mm^2
  Peak Power = 300.893 W
  Total Leakage = 52.482 W
  Peak Dynamic = 248.411 W
  Subthreshold Leakage = 38.4433 W
  Subthreshold Leakage with power gating = 14.7915 W
  Gate Leakage = 14.0387 W
  Runtime Dynamic = 44.1162 W

  Total Cores: 32 cores 
  Device Type= ITRS high performance device type
    Area = 406.281 mm^2
    Peak Dynamic = 247.841 W
    Subthreshold Leakage = 36.6427 W
    Subthreshold Leakage with power gating = 13.807 W
    Gate Leakage = 13.7959 W
    Runtime Dynamic = 43.7492 W

  Total L2s: 
  Device Type= ITRS high performance device type
    Area = 39.9535 mm^2
    Peak Dynamic = 0.477637 W
    Subthreshold Leakage = 1.79911 W
    Subthreshold Leakage with power gating = 0.825173 W
    Gate Leakage = 0.24175 W
    Runtime Dynamic = 0.228166 W

  Total NoCs (Network/Bus): 
  Device Type= ITRS high performance device type
    Area = 0.0870126 mm^2
    Peak Dynamic = 0.09245 W
    Subthreshold Leakage = 0.00149161 W
    Subthreshold Leakage with power gating = 0.000850216 W
    Gate Leakage = 0.00102695 W
    Runtime Dynamic = 0.138831 W

*****************************************************************************************
Core:
      Area = 12.6963 mm^2
      Peak Dynamic = 6.30739 W
      Subthreshold Leakage = 1.14508 W
      Subthreshold Leakage with power gating = 0.431469 W
      Gate Leakage = 0.431123 W
      Runtime Dynamic = 0.662305 W

      Instruction Fetch Unit:
        Area = 3.04058 mm^2
        Peak Dynamic = 1.0615 W
        Subthreshold Leakage = 0.226888 W
        Subthreshold Leakage with power gating = 0.0933342 W
        Gate Leakage = 0.082348 W
        Runtime Dynamic = 0.0117679 W

          Instruction Cache:
            Area = 1.60147 mm^2
            Peak Dynamic = 0.0896891 W
            Subthreshold Leakage = 0.093335 W
            Subthreshold Leakage with power gating = 0.044301 W
            Gate Leakage = 0.042566 W
            Runtime Dynamic = 0.00571101 W

          Branch Target Buffer:
            Area = 0.397072 mm^2
            Peak Dynamic = 0.0840866 W
            Subthreshold Leakage = 0.02173 W
            Subthreshold Leakage with power gating = 0.0105914 W
            Gate Leakage = 0.00551055 W
            Runtime Dynamic = 0.000491607 W

          Branch Predictor:
            Area = 0.0686002 mm^2
            Peak Dynamic = 0.0275933 W
            Subthreshold Leakage = 0.00468696 W
            Subthreshold Leakage with power gating = 0.00225328 W
            Gate Leakage = 0.00101062 W
            Runtime Dynamic = 0.000161512 W

              Global Predictor:
                Area = 0.0218979 mm^2
                Peak Dynamic = 0.0077921 W
                Subthreshold Leakage = 0.00178236 W
                Subthreshold Leakage with power gating = 0.000855551 W
                Gate Leakage = 0.000370196 W
                Runtime Dynamic = 4.93696e-05 W

              Local Predictor:
              L1_Local Predictor:
                Area = 0.0128884 mm^2
                Peak Dynamic = 0.00653673 W
                Subthreshold Leakage = 0.000903617 W
                Subthreshold Leakage with power gating = 0.000433877 W
                Gate Leakage = 0.000207902 W
                Runtime Dynamic = 4.26005e-05 W

              L2_Local Predictor:
                Area = 0.00661857 mm^2
                Peak Dynamic = 0.00333484 W
                Subthreshold Leakage = 0.000457985 W
                Subthreshold Leakage with power gating = 0.00021904 W
                Gate Leakage = 0.000109414 W
                Runtime Dynamic = 2.17351e-05 W

              Chooser:
                Area = 0.0218979 mm^2
                Peak Dynamic = 0.0077921 W
                Subthreshold Leakage = 0.00178236 W
                Subthreshold Leakage with power gating = 0.000855551 W
                Gate Leakage = 0.000370196 W
                Runtime Dynamic = 4.93696e-05 W

              RAS:
                Area = 0.00529751 mm^2
                Peak Dynamic = 0.00547237 W
                Subthreshold Leakage = 0.000218626 W
                Subthreshold Leakage with power gating = 0.000108298 W
                Gate Leakage = 6.23254e-05 W
                Runtime Dynamic = 2.0172e-05 W

          Instruction Buffer:
            Area = 0.0111146 mm^2
            Peak Dynamic = 0.290305 W
            Subthreshold Leakage = 0.000365712 W
            Subthreshold Leakage with power gating = 0.000153616 W
            Gate Leakage = 9.42121e-05 W
            Runtime Dynamic = 0.00137675 W

          Instruction Decoder:
            Area = 0.939544 mm^2
            Peak Dynamic = 0.566091 W
            Subthreshold Leakage = 0.102165 W
            Subthreshold Leakage with power gating = 0.0344807 W
            Gate Leakage = 0.028867 W
            Runtime Dynamic = 0.00402696 W

      Renaming Unit:
        Area = 0.187354 mm^2
        Peak Dynamic = 2.14888 W
        Subthreshold Leakage = 0.0176949 W
        Subthreshold Leakage with power gating = 0.00901078 W
        Gate Leakage = 0.0121236 W
        Runtime Dynamic = 0.00285469 W

          Int Front End RAT:
            Area = 0.0583904 mm^2
            Peak Dynamic = 0.386173 W
            Subthreshold Leakage = 0.00151853 W
            Subthreshold Leakage with power gating = 0.000865565 W
            Gate Leakage = 0.000537576 W
            Runtime Dynamic = 0.0025865 W

          FP Front End RAT:
            Area = 0.0852001 mm^2
            Peak Dynamic = 1.61287 W
            Subthreshold Leakage = 0.0114141 W
            Subthreshold Leakage with power gating = 0.00650604 W
            Gate Leakage = 0.00723124 W
            Runtime Dynamic = 1.49225e-06 W

          Free List:
            Area = 0.0209802 mm^2
            Peak Dynamic = 0.0187401 W
            Subthreshold Leakage = 0.000157165 W
            Subthreshold Leakage with power gating = 8.49701e-05 W
            Gate Leakage = 5.50825e-05 W
            Runtime Dynamic = 0.000266637 W

      Load Store Unit:
        Area = 1.98568 mm^2
        Peak Dynamic = 0.651845 W
        Subthreshold Leakage = 0.0912613 W
        Subthreshold Leakage with power gating = 0.0480116 W
        Gate Leakage = 0.0319237 W
        Runtime Dynamic = 0.0158649 W

          Data Cache:
            Area = 1.5316 mm^2
            Peak Dynamic = 0.646299 W
            Subthreshold Leakage = 0.0809419 W
            Subthreshold Leakage with power gating = 0.0432002 W
            Gate Leakage = 0.025643 W
            Runtime Dynamic = 0.00997893 W

          LoadQ:
            Area = 0.0430063 mm^2
            Peak Dynamic = 0.00163617 W
            Subthreshold Leakage = 0.00238113 W
            Subthreshold Leakage with power gating = 0.00135725 W
            Gate Leakage = 0.000855022 W
            Runtime Dynamic = 0.00163619 W

          StoreQ:
            Area = 0.0515274 mm^2
            Peak Dynamic = 0.00212483 W
            Subthreshold Leakage = 0.00333321 W
            Subthreshold Leakage with power gating = 0.00189993 W
            Gate Leakage = 0.00112608 W
            Runtime Dynamic = 0.00424972 W

      Memory Management Unit:
        Area = 0.100456 mm^2
        Peak Dynamic = 0.0694466 W
        Subthreshold Leakage = 0.0106657 W
        Subthreshold Leakage with power gating = 0.00500875 W
        Gate Leakage = 0.0062802 W
        Runtime Dynamic = 0.00164622 W

          Itlb:
            Area = 0.0319967 mm^2
            Peak Dynamic = 0.00164476 W
            Subthreshold Leakage = 0.00232604 W
            Subthreshold Leakage with power gating = 0.00132584 W
            Gate Leakage = 0.000775623 W
            Runtime Dynamic = 0.000263187 W

          Dtlb:
            Area = 0.0456762 mm^2
            Peak Dynamic = 0.00136386 W
            Subthreshold Leakage = 0.00373455 W
            Subthreshold Leakage with power gating = 0.00212869 W
            Gate Leakage = 0.00120491 W
            Runtime Dynamic = 0.00138297 W

      Execution Unit:
        Area = 4.30453 mm^2
        Peak Dynamic = 2.37573 W
        Subthreshold Leakage = 0.36545 W
        Subthreshold Leakage with power gating = 0.129924 W
        Gate Leakage = 0.137753 W
        Runtime Dynamic = 0.630171 W

          Register Files:
            Area = 0.293668 mm^2
            Peak Dynamic = 0.00143258 W
            Subthreshold Leakage = 0.00262543 W
            Subthreshold Leakage with power gating = 0.000992351 W
            Gate Leakage = 0.00090702 W
            Runtime Dynamic = 0.00166093 W

              Integer RF:
                Area = 0.186234 mm^2
                Peak Dynamic = 0.00143212 W
                Subthreshold Leakage = 0.00159167 W
                Subthreshold Leakage with power gating = 0.000581031 W
                Gate Leakage = 0.000571424 W
                Runtime Dynamic = 0.0014645 W

              Floating Point RF:
                Area = 0.107434 mm^2
                Peak Dynamic = 4.63914e-07 W
                Subthreshold Leakage = 0.00103377 W
                Subthreshold Leakage with power gating = 0.00041132 W
                Gate Leakage = 0.000335596 W
                Runtime Dynamic = 0.000196427 W

          Instruction Scheduler:
            Area = 1.11343 mm^2
            Peak Dynamic = 2.36434 W
            Subthreshold Leakage = 0.0299356 W
            Subthreshold Leakage with power gating = 0.0165819 W
            Gate Leakage = 0.0107484 W
            Runtime Dynamic = 0.0209484 W

              Instruction Window:
                Area = 0.519531 mm^2
                Peak Dynamic = 1.01319 W
                Subthreshold Leakage = 0.0210861 W
                Subthreshold Leakage with power gating = 0.0119994 W
                Gate Leakage = 0.00784113 W
                Runtime Dynamic = 0.00943047 W

              FP Instruction Window:
                Area = 0.167689 mm^2
                Peak Dynamic = 0.592068 W
                Subthreshold Leakage = 0.00447456 W
                Subthreshold Leakage with power gating = 0.00253081 W
                Gate Leakage = 0.0017016 W
                Runtime Dynamic = 0.0054737 W

              ROB:
                Area = 0.426209 mm^2
                Peak Dynamic = 0.75908 W
                Subthreshold Leakage = 0.00437495 W
                Subthreshold Leakage with power gating = 0.0020517 W
                Gate Leakage = 0.00120572 W
                Runtime Dynamic = 0.00604419 W

          Integer ALUs (Count: 6 ):
            Area = 0.329609 mm^2
            Peak Dynamic = 0.00597595 W
            Subthreshold Leakage = 0.0927722 W
            Subthreshold Leakage with power gating = 0.0313106 W
            Gate Leakage = 0.0344197 W
            Runtime Dynamic = 0.103921 W

          Floating Point Units (FPUs) (Count: 2 ):
            Area = 2.35571 mm^2
            Peak Dynamic = 2.91599e-06 W
            Subthreshold Leakage = 0.16576 W
            Subthreshold Leakage with power gating = 0.055944 W
            Gate Leakage = 0.0614991 W
            Runtime Dynamic = 0.296665 W

          Complex ALUs (Mul/Div) (Count: 1 ):
            Area = 0.164805 mm^2
            Peak Dynamic = 5.84886e-07 W
            Subthreshold Leakage = 0.0463861 W
            Subthreshold Leakage with power gating = 0.0156553 W
            Gate Leakage = 0.0172098 W
            Runtime Dynamic = 0.197776 W

          Results Broadcast Bus:
            Area Overhead = 0.0245306 mm^2
            Peak Dynamic = 0.00335603 W
            Subthreshold Leakage = 0.0233657 W
            Subthreshold Leakage with power gating = 0.00788591 W
            Gate Leakage = 0.00866896 W
            Runtime Dynamic = 0.00920014 W

*****************************************************************************************
Core:
      Area = 12.6963 mm^2
      Peak Dynamic = 7.79547 W
      Subthreshold Leakage = 1.14508 W
      Subthreshold Leakage with power gating = 0.431469 W
      Gate Leakage = 0.431123 W
      Runtime Dynamic = 1.39103 W

      Instruction Fetch Unit:
        Area = 3.04058 mm^2
        Peak Dynamic = 1.98649 W
        Subthreshold Leakage = 0.226888 W
        Subthreshold Leakage with power gating = 0.0933342 W
        Gate Leakage = 0.082348 W
        Runtime Dynamic = 0.11931 W

          Instruction Cache:
            Area = 1.60147 mm^2
            Peak Dynamic = 0.977745 W
            Subthreshold Leakage = 0.093335 W
            Subthreshold Leakage with power gating = 0.044301 W
            Gate Leakage = 0.042566 W
            Runtime Dynamic = 0.0553783 W

          Branch Target Buffer:
            Area = 0.397072 mm^2
            Peak Dynamic = 0.0840866 W
            Subthreshold Leakage = 0.02173 W
            Subthreshold Leakage with power gating = 0.0105914 W
            Gate Leakage = 0.00551055 W
            Runtime Dynamic = 0.0037242 W

          Branch Predictor:
            Area = 0.0686002 mm^2
            Peak Dynamic = 0.0275933 W
            Subthreshold Leakage = 0.00468696 W
            Subthreshold Leakage with power gating = 0.00225328 W
            Gate Leakage = 0.00101062 W
            Runtime Dynamic = 0.00129789 W

              Global Predictor:
                Area = 0.0218979 mm^2
                Peak Dynamic = 0.0077921 W
                Subthreshold Leakage = 0.00178236 W
                Subthreshold Leakage with power gating = 0.000855551 W
                Gate Leakage = 0.000370196 W
                Runtime Dynamic = 0.000376298 W

              Local Predictor:
              L1_Local Predictor:
                Area = 0.0128884 mm^2
                Peak Dynamic = 0.00653673 W
                Subthreshold Leakage = 0.000903617 W
                Subthreshold Leakage with power gating = 0.000433877 W
                Gate Leakage = 0.000207902 W
                Runtime Dynamic = 0.000325362 W

              L2_Local Predictor:
                Area = 0.00661857 mm^2
                Peak Dynamic = 0.00333484 W
                Subthreshold Leakage = 0.000457985 W
                Subthreshold Leakage with power gating = 0.00021904 W
                Gate Leakage = 0.000109414 W
                Runtime Dynamic = 0.000166003 W

              Chooser:
                Area = 0.0218979 mm^2
                Peak Dynamic = 0.0077921 W
                Subthreshold Leakage = 0.00178236 W
                Subthreshold Leakage with power gating = 0.000855551 W
                Gate Leakage = 0.000370196 W
                Runtime Dynamic = 0.000376298 W

              RAS:
                Area = 0.00529751 mm^2
                Peak Dynamic = 0.00547237 W
                Subthreshold Leakage = 0.000218626 W
                Subthreshold Leakage with power gating = 0.000108298 W
                Gate Leakage = 6.23254e-05 W
                Runtime Dynamic = 0.000219937 W

          Instruction Buffer:
            Area = 0.0111146 mm^2
            Peak Dynamic = 0.290305 W
            Subthreshold Leakage = 0.000365712 W
            Subthreshold Leakage with power gating = 0.000153616 W
            Gate Leakage = 9.42121e-05 W
            Runtime Dynamic = 0.0150089 W

          Instruction Decoder:
            Area = 0.939544 mm^2
            Peak Dynamic = 0.566091 W
            Subthreshold Leakage = 0.102165 W
            Subthreshold Leakage with power gating = 0.0344807 W
            Gate Leakage = 0.028867 W
            Runtime Dynamic = 0.0439006 W

      Renaming Unit:
        Area = 0.187354 mm^2
        Peak Dynamic = 2.14888 W
        Subthreshold Leakage = 0.0176949 W
        Subthreshold Leakage with power gating = 0.00901078 W
        Gate Leakage = 0.0121236 W
        Runtime Dynamic = 0.0705462 W

          Int Front End RAT:
            Area = 0.0583904 mm^2
            Peak Dynamic = 0.386173 W
            Subthreshold Leakage = 0.00151853 W
            Subthreshold Leakage with power gating = 0.000865565 W
            Gate Leakage = 0.000537576 W
            Runtime Dynamic = 0.0273764 W

          FP Front End RAT:
            Area = 0.0852001 mm^2
            Peak Dynamic = 1.61287 W
            Subthreshold Leakage = 0.0114141 W
            Subthreshold Leakage with power gating = 0.00650604 W
            Gate Leakage = 0.00723124 W
            Runtime Dynamic = 0.0398007 W

          Free List:
            Area = 0.0209802 mm^2
            Peak Dynamic = 0.0187401 W
            Subthreshold Leakage = 0.000157165 W
            Subthreshold Leakage with power gating = 8.49701e-05 W
            Gate Leakage = 5.50825e-05 W
            Runtime Dynamic = 0.00336904 W

      Load Store Unit:
        Area = 1.98568 mm^2
        Peak Dynamic = 0.965001 W
        Subthreshold Leakage = 0.0912613 W
        Subthreshold Leakage with power gating = 0.0480116 W
        Gate Leakage = 0.0319237 W
        Runtime Dynamic = 0.132749 W

          Data Cache:
            Area = 1.5316 mm^2
            Peak Dynamic = 0.917516 W
            Subthreshold Leakage = 0.0809419 W
            Subthreshold Leakage with power gating = 0.0432002 W
            Gate Leakage = 0.025643 W
            Runtime Dynamic = 0.0823503 W

          LoadQ:
            Area = 0.0430063 mm^2
            Peak Dynamic = 0.0140102 W
            Subthreshold Leakage = 0.00238113 W
            Subthreshold Leakage with power gating = 0.00135725 W
            Gate Leakage = 0.000855022 W
            Runtime Dynamic = 0.0140101 W

          StoreQ:
            Area = 0.0515274 mm^2
            Peak Dynamic = 0.0181945 W
            Subthreshold Leakage = 0.00333321 W
            Subthreshold Leakage with power gating = 0.00189993 W
            Gate Leakage = 0.00112608 W
            Runtime Dynamic = 0.0363888 W

      Memory Management Unit:
        Area = 0.100456 mm^2
        Peak Dynamic = 0.102795 W
        Subthreshold Leakage = 0.0106657 W
        Subthreshold Leakage with power gating = 0.00500875 W
        Gate Leakage = 0.0062802 W
        Runtime Dynamic = 0.0145047 W

          Itlb:
            Area = 0.0319967 mm^2
            Peak Dynamic = 0.0179304 W
            Subthreshold Leakage = 0.00232604 W
            Subthreshold Leakage with power gating = 0.00132584 W
            Gate Leakage = 0.000775623 W
            Runtime Dynamic = 0.00267345 W

          Dtlb:
            Area = 0.0456762 mm^2
            Peak Dynamic = 0.0116784 W
            Subthreshold Leakage = 0.00373455 W
            Subthreshold Leakage with power gating = 0.00212869 W
            Gate Leakage = 0.00120491 W
            Runtime Dynamic = 0.0118312 W

      Execution Unit:
        Area = 4.30453 mm^2
        Peak Dynamic = 2.59231 W
        Subthreshold Leakage = 0.36545 W
        Subthreshold Leakage with power gating = 0.129924 W
        Gate Leakage = 0.137753 W
        Runtime Dynamic = 1.05392 W

          Register Files:
            Area = 0.293668 mm^2
            Peak Dynamic = 0.0313501 W
            Subthreshold Leakage = 0.00262543 W
            Subthreshold Leakage with power gating = 0.000992351 W
            Gate Leakage = 0.00090702 W
            Runtime Dynamic = 0.0181071 W

              Integer RF:
                Area = 0.186234 mm^2
                Peak Dynamic = 0.0199021 W
                Subthreshold Leakage = 0.00159167 W
                Subthreshold Leakage with power gating = 0.000581031 W
                Gate Leakage = 0.000571424 W
                Runtime Dynamic = 0.0159656 W

              Floating Point RF:
                Area = 0.107434 mm^2
                Peak Dynamic = 0.011448 W
                Subthreshold Leakage = 0.00103377 W
                Subthreshold Leakage with power gating = 0.00041132 W
                Gate Leakage = 0.000335596 W
                Runtime Dynamic = 0.00214146 W

          Instruction Scheduler:
            Area = 1.11343 mm^2
            Peak Dynamic = 2.36434 W
            Subthreshold Leakage = 0.0299356 W
            Subthreshold Leakage with power gating = 0.0165819 W
            Gate Leakage = 0.0107484 W
            Runtime Dynamic = 0.229806 W

              Instruction Window:
                Area = 0.519531 mm^2
                Peak Dynamic = 1.01319 W
                Subthreshold Leakage = 0.0210861 W
                Subthreshold Leakage with power gating = 0.0119994 W
                Gate Leakage = 0.00784113 W
                Runtime Dynamic = 0.102808 W

              FP Instruction Window:
                Area = 0.167689 mm^2
                Peak Dynamic = 0.592068 W
                Subthreshold Leakage = 0.00447456 W
                Subthreshold Leakage with power gating = 0.00253081 W
                Gate Leakage = 0.0017016 W
                Runtime Dynamic = 0.0596729 W

              ROB:
                Area = 0.426209 mm^2
                Peak Dynamic = 0.75908 W
                Subthreshold Leakage = 0.00437495 W
                Subthreshold Leakage with power gating = 0.0020517 W
                Gate Leakage = 0.00120572 W
                Runtime Dynamic = 0.0673253 W

          Integer ALUs (Count: 6 ):
            Area = 0.329609 mm^2
            Peak Dynamic = 0.054788 W
            Subthreshold Leakage = 0.0927722 W
            Subthreshold Leakage with power gating = 0.0313106 W
            Gate Leakage = 0.0344197 W
            Runtime Dynamic = 0.149431 W

          Floating Point Units (FPUs) (Count: 2 ):
            Area = 2.35571 mm^2
            Peak Dynamic = 0.0719578 W
            Subthreshold Leakage = 0.16576 W
            Subthreshold Leakage with power gating = 0.055944 W
            Gate Leakage = 0.0614991 W
            Runtime Dynamic = 0.325322 W

          Complex ALUs (Mul/Div) (Count: 1 ):
            Area = 0.164805 mm^2
            Peak Dynamic = 0.0144356 W
            Subthreshold Leakage = 0.0463861 W
            Subthreshold Leakage with power gating = 0.0156553 W
            Gate Leakage = 0.0172098 W
            Runtime Dynamic = 0.20733 W

          Results Broadcast Bus:
            Area Overhead = 0.0245306 mm^2
            Peak Dynamic = 0.04974 W
            Subthreshold Leakage = 0.0233657 W
            Subthreshold Leakage with power gating = 0.00788591 W
            Gate Leakage = 0.00866896 W
            Runtime Dynamic = 0.123927 W

*****************************************************************************************
Core:
      Area = 12.6963 mm^2
      Peak Dynamic = 7.79283 W
      Subthreshold Leakage = 1.14508 W
      Subthreshold Leakage with power gating = 0.431469 W
      Gate Leakage = 0.431123 W
      Runtime Dynamic = 1.38971 W

      Instruction Fetch Unit:
        Area = 3.04058 mm^2
        Peak Dynamic = 1.98477 W
        Subthreshold Leakage = 0.226888 W
        Subthreshold Leakage with power gating = 0.0933342 W
        Gate Leakage = 0.082348 W
        Runtime Dynamic = 0.119117 W

          Instruction Cache:
            Area = 1.60147 mm^2
            Peak Dynamic = 0.976093 W
            Subthreshold Leakage = 0.093335 W
            Subthreshold Leakage with power gating = 0.044301 W
            Gate Leakage = 0.042566 W
            Runtime Dynamic = 0.0552958 W

          Branch Target Buffer:
            Area = 0.397072 mm^2
            Peak Dynamic = 0.0840866 W
            Subthreshold Leakage = 0.02173 W
            Subthreshold Leakage with power gating = 0.0105914 W
            Gate Leakage = 0.00551055 W
            Runtime Dynamic = 0.00371627 W

          Branch Predictor:
            Area = 0.0686002 mm^2
            Peak Dynamic = 0.0275933 W
            Subthreshold Leakage = 0.00468696 W
            Subthreshold Leakage with power gating = 0.00225328 W
            Gate Leakage = 0.00101062 W
            Runtime Dynamic = 0.00129517 W

              Global Predictor:
                Area = 0.0218979 mm^2
                Peak Dynamic = 0.0077921 W
                Subthreshold Leakage = 0.00178236 W
                Subthreshold Leakage with power gating = 0.000855551 W
                Gate Leakage = 0.000370196 W
                Runtime Dynamic = 0.00037548 W

              Local Predictor:
              L1_Local Predictor:
                Area = 0.0128884 mm^2
                Peak Dynamic = 0.00653673 W
                Subthreshold Leakage = 0.000903617 W
                Subthreshold Leakage with power gating = 0.000433877 W
                Gate Leakage = 0.000207902 W
                Runtime Dynamic = 0.00032465 W

              L2_Local Predictor:
                Area = 0.00661857 mm^2
                Peak Dynamic = 0.00333484 W
                Subthreshold Leakage = 0.000457985 W
                Subthreshold Leakage with power gating = 0.00021904 W
                Gate Leakage = 0.000109414 W
                Runtime Dynamic = 0.00016564 W

              Chooser:
                Area = 0.0218979 mm^2
                Peak Dynamic = 0.0077921 W
                Subthreshold Leakage = 0.00178236 W
                Subthreshold Leakage with power gating = 0.000855551 W
                Gate Leakage = 0.000370196 W
                Runtime Dynamic = 0.00037548 W

              RAS:
                Area = 0.00529751 mm^2
                Peak Dynamic = 0.00547237 W
                Subthreshold Leakage = 0.000218626 W
                Subthreshold Leakage with power gating = 0.000108298 W
                Gate Leakage = 6.23254e-05 W
                Runtime Dynamic = 0.000219563 W

          Instruction Buffer:
            Area = 0.0111146 mm^2
            Peak Dynamic = 0.290305 W
            Subthreshold Leakage = 0.000365712 W
            Subthreshold Leakage with power gating = 0.000153616 W
            Gate Leakage = 9.42121e-05 W
            Runtime Dynamic = 0.0149835 W

          Instruction Decoder:
            Area = 0.939544 mm^2
            Peak Dynamic = 0.566091 W
            Subthreshold Leakage = 0.102165 W
            Subthreshold Leakage with power gating = 0.0344807 W
            Gate Leakage = 0.028867 W
            Runtime Dynamic = 0.0438265 W

      Renaming Unit:
        Area = 0.187354 mm^2
        Peak Dynamic = 2.14888 W
        Subthreshold Leakage = 0.0176949 W
        Subthreshold Leakage with power gating = 0.00901078 W
        Gate Leakage = 0.0121236 W
        Runtime Dynamic = 0.0704934 W

          Int Front End RAT:
            Area = 0.0583904 mm^2
            Peak Dynamic = 0.386173 W
            Subthreshold Leakage = 0.00151853 W
            Subthreshold Leakage with power gating = 0.000865565 W
            Gate Leakage = 0.000537576 W
            Runtime Dynamic = 0.0273285 W

          FP Front End RAT:
            Area = 0.0852001 mm^2
            Peak Dynamic = 1.61287 W
            Subthreshold Leakage = 0.0114141 W
            Subthreshold Leakage with power gating = 0.00650604 W
            Gate Leakage = 0.00723124 W
            Runtime Dynamic = 0.0398007 W

          Free List:
            Area = 0.0209802 mm^2
            Peak Dynamic = 0.0187401 W
            Subthreshold Leakage = 0.000157165 W
            Subthreshold Leakage with power gating = 8.49701e-05 W
            Gate Leakage = 5.50825e-05 W
            Runtime Dynamic = 0.00336414 W

      Load Store Unit:
        Area = 1.98568 mm^2
        Peak Dynamic = 0.964359 W
        Subthreshold Leakage = 0.0912613 W
        Subthreshold Leakage with power gating = 0.0480116 W
        Gate Leakage = 0.0319237 W
        Runtime Dynamic = 0.132383 W

          Data Cache:
            Area = 1.5316 mm^2
            Peak Dynamic = 0.91696 W
            Subthreshold Leakage = 0.0809419 W
            Subthreshold Leakage with power gating = 0.0432002 W
            Gate Leakage = 0.025643 W
            Runtime Dynamic = 0.082075 W

          LoadQ:
            Area = 0.0430063 mm^2
            Peak Dynamic = 0.0139848 W
            Subthreshold Leakage = 0.00238113 W
            Subthreshold Leakage with power gating = 0.00135725 W
            Gate Leakage = 0.000855022 W
            Runtime Dynamic = 0.0139848 W

          StoreQ:
            Area = 0.0515274 mm^2
            Peak Dynamic = 0.0181615 W
            Subthreshold Leakage = 0.00333321 W
            Subthreshold Leakage with power gating = 0.00189993 W
            Gate Leakage = 0.00112608 W
            Runtime Dynamic = 0.036323 W

      Memory Management Unit:
        Area = 0.100456 mm^2
        Peak Dynamic = 0.10273 W
        Subthreshold Leakage = 0.0106657 W
        Subthreshold Leakage with power gating = 0.00500875 W
        Gate Leakage = 0.0062802 W
        Runtime Dynamic = 0.0144782 W

          Itlb:
            Area = 0.0319967 mm^2
            Peak Dynamic = 0.0179001 W
            Subthreshold Leakage = 0.00232604 W
            Subthreshold Leakage with power gating = 0.00132584 W
            Gate Leakage = 0.000775623 W
            Runtime Dynamic = 0.00266994 W

          Dtlb:
            Area = 0.0456762 mm^2
            Peak Dynamic = 0.0116573 W
            Subthreshold Leakage = 0.00373455 W
            Subthreshold Leakage with power gating = 0.00212869 W
            Gate Leakage = 0.00120491 W
            Runtime Dynamic = 0.0118082 W

      Execution Unit:
        Area = 4.30453 mm^2
        Peak Dynamic = 2.5921 W
        Subthreshold Leakage = 0.36545 W
        Subthreshold Leakage with power gating = 0.129924 W
        Gate Leakage = 0.137753 W
        Runtime Dynamic = 1.05324 W

          Register Files:
            Area = 0.293668 mm^2
            Peak Dynamic = 0.0313236 W
            Subthreshold Leakage = 0.00262543 W
            Subthreshold Leakage with power gating = 0.000992351 W
            Gate Leakage = 0.00090702 W
            Runtime Dynamic = 0.0180765 W

              Integer RF:
                Area = 0.186234 mm^2
                Peak Dynamic = 0.0198756 W
                Subthreshold Leakage = 0.00159167 W
                Subthreshold Leakage with power gating = 0.000581031 W
                Gate Leakage = 0.000571424 W
                Runtime Dynamic = 0.0159387 W

              Floating Point RF:
                Area = 0.107434 mm^2
                Peak Dynamic = 0.011448 W
                Subthreshold Leakage = 0.00103377 W
                Subthreshold Leakage with power gating = 0.00041132 W
                Gate Leakage = 0.000335596 W
                Runtime Dynamic = 0.00213785 W

          Instruction Scheduler:
            Area = 1.11343 mm^2
            Peak Dynamic = 2.36434 W
            Subthreshold Leakage = 0.0299356 W
            Subthreshold Leakage with power gating = 0.0165819 W
            Gate Leakage = 0.0107484 W
            Runtime Dynamic = 0.229422 W

              Instruction Window:
                Area = 0.519531 mm^2
                Peak Dynamic = 1.01319 W
                Subthreshold Leakage = 0.0210861 W
                Subthreshold Leakage with power gating = 0.0119994 W
                Gate Leakage = 0.00784113 W
                Runtime Dynamic = 0.102634 W

              FP Instruction Window:
                Area = 0.167689 mm^2
                Peak Dynamic = 0.592068 W
                Subthreshold Leakage = 0.00447456 W
                Subthreshold Leakage with power gating = 0.00253081 W
                Gate Leakage = 0.0017016 W
                Runtime Dynamic = 0.0595722 W

              ROB:
                Area = 0.426209 mm^2
                Peak Dynamic = 0.75908 W
                Subthreshold Leakage = 0.00437495 W
                Subthreshold Leakage with power gating = 0.0020517 W
                Gate Leakage = 0.00120572 W
                Runtime Dynamic = 0.0672155 W

          Integer ALUs (Count: 6 ):
            Area = 0.329609 mm^2
            Peak Dynamic = 0.0546771 W
            Subthreshold Leakage = 0.0927722 W
            Subthreshold Leakage with power gating = 0.0313106 W
            Gate Leakage = 0.0344197 W
            Runtime Dynamic = 0.149337 W

          Floating Point Units (FPUs) (Count: 2 ):
            Area = 2.35571 mm^2
            Peak Dynamic = 0.0719578 W
            Subthreshold Leakage = 0.16576 W
            Subthreshold Leakage with power gating = 0.055944 W
            Gate Leakage = 0.0614991 W
            Runtime Dynamic = 0.325322 W

          Complex ALUs (Mul/Div) (Count: 1 ):
            Area = 0.164805 mm^2
            Peak Dynamic = 0.0144356 W
            Subthreshold Leakage = 0.0463861 W
            Subthreshold Leakage with power gating = 0.0156553 W
            Gate Leakage = 0.0172098 W
            Runtime Dynamic = 0.20733 W

          Results Broadcast Bus:
            Area Overhead = 0.0245306 mm^2
            Peak Dynamic = 0.0496778 W
            Subthreshold Leakage = 0.0233657 W
            Subthreshold Leakage with power gating = 0.00788591 W
            Gate Leakage = 0.00866896 W
            Runtime Dynamic = 0.123756 W

*****************************************************************************************
Core:
      Area = 12.6963 mm^2
      Peak Dynamic = 7.79283 W
      Subthreshold Leakage = 1.14508 W
      Subthreshold Leakage with power gating = 0.431469 W
      Gate Leakage = 0.431123 W
      Runtime Dynamic = 1.38977 W

      Instruction Fetch Unit:
        Area = 3.04058 mm^2
        Peak Dynamic = 1.98477 W
        Subthreshold Leakage = 0.226888 W
        Subthreshold Leakage with power gating = 0.0933342 W
        Gate Leakage = 0.082348 W
        Runtime Dynamic = 0.119117 W

          Instruction Cache:
            Area = 1.60147 mm^2
            Peak Dynamic = 0.976093 W
            Subthreshold Leakage = 0.093335 W
            Subthreshold Leakage with power gating = 0.044301 W
            Gate Leakage = 0.042566 W
            Runtime Dynamic = 0.0552958 W

          Branch Target Buffer:
            Area = 0.397072 mm^2
            Peak Dynamic = 0.0840866 W
            Subthreshold Leakage = 0.02173 W
            Subthreshold Leakage with power gating = 0.0105914 W
            Gate Leakage = 0.00551055 W
            Runtime Dynamic = 0.00371627 W

          Branch Predictor:
            Area = 0.0686002 mm^2
            Peak Dynamic = 0.0275933 W
            Subthreshold Leakage = 0.00468696 W
            Subthreshold Leakage with power gating = 0.00225328 W
            Gate Leakage = 0.00101062 W
            Runtime Dynamic = 0.00129517 W

              Global Predictor:
                Area = 0.0218979 mm^2
                Peak Dynamic = 0.0077921 W
                Subthreshold Leakage = 0.00178236 W
                Subthreshold Leakage with power gating = 0.000855551 W
                Gate Leakage = 0.000370196 W
                Runtime Dynamic = 0.00037548 W

              Local Predictor:
              L1_Local Predictor:
                Area = 0.0128884 mm^2
                Peak Dynamic = 0.00653673 W
                Subthreshold Leakage = 0.000903617 W
                Subthreshold Leakage with power gating = 0.000433877 W
                Gate Leakage = 0.000207902 W
                Runtime Dynamic = 0.00032465 W

              L2_Local Predictor:
                Area = 0.00661857 mm^2
                Peak Dynamic = 0.00333484 W
                Subthreshold Leakage = 0.000457985 W
                Subthreshold Leakage with power gating = 0.00021904 W
                Gate Leakage = 0.000109414 W
                Runtime Dynamic = 0.00016564 W

              Chooser:
                Area = 0.0218979 mm^2
                Peak Dynamic = 0.0077921 W
                Subthreshold Leakage = 0.00178236 W
                Subthreshold Leakage with power gating = 0.000855551 W
                Gate Leakage = 0.000370196 W
                Runtime Dynamic = 0.00037548 W

              RAS:
                Area = 0.00529751 mm^2
                Peak Dynamic = 0.00547237 W
                Subthreshold Leakage = 0.000218626 W
                Subthreshold Leakage with power gating = 0.000108298 W
                Gate Leakage = 6.23254e-05 W
                Runtime Dynamic = 0.000219563 W

          Instruction Buffer:
            Area = 0.0111146 mm^2
            Peak Dynamic = 0.290305 W
            Subthreshold Leakage = 0.000365712 W
            Subthreshold Leakage with power gating = 0.000153616 W
            Gate Leakage = 9.42121e-05 W
            Runtime Dynamic = 0.0149835 W

          Instruction Decoder:
            Area = 0.939544 mm^2
            Peak Dynamic = 0.566091 W
            Subthreshold Leakage = 0.102165 W
            Subthreshold Leakage with power gating = 0.0344807 W
            Gate Leakage = 0.028867 W
            Runtime Dynamic = 0.0438265 W

      Renaming Unit:
        Area = 0.187354 mm^2
        Peak Dynamic = 2.14888 W
        Subthreshold Leakage = 0.0176949 W
        Subthreshold Leakage with power gating = 0.00901078 W
        Gate Leakage = 0.0121236 W
        Runtime Dynamic = 0.0704934 W

          Int Front End RAT:
            Area = 0.0583904 mm^2
            Peak Dynamic = 0.386173 W
            Subthreshold Leakage = 0.00151853 W
            Subthreshold Leakage with power gating = 0.000865565 W
            Gate Leakage = 0.000537576 W
            Runtime Dynamic = 0.0273285 W

          FP Front End RAT:
            Area = 0.0852001 mm^2
            Peak Dynamic = 1.61287 W
            Subthreshold Leakage = 0.0114141 W
            Subthreshold Leakage with power gating = 0.00650604 W
            Gate Leakage = 0.00723124 W
            Runtime Dynamic = 0.0398007 W

          Free List:
            Area = 0.0209802 mm^2
            Peak Dynamic = 0.0187401 W
            Subthreshold Leakage = 0.000157165 W
            Subthreshold Leakage with power gating = 8.49701e-05 W
            Gate Leakage = 5.50825e-05 W
            Runtime Dynamic = 0.00336414 W

      Load Store Unit:
        Area = 1.98568 mm^2
        Peak Dynamic = 0.964359 W
        Subthreshold Leakage = 0.0912613 W
        Subthreshold Leakage with power gating = 0.0480116 W
        Gate Leakage = 0.0319237 W
        Runtime Dynamic = 0.132435 W

          Data Cache:
            Area = 1.5316 mm^2
            Peak Dynamic = 0.91696 W
            Subthreshold Leakage = 0.0809419 W
            Subthreshold Leakage with power gating = 0.0432002 W
            Gate Leakage = 0.025643 W
            Runtime Dynamic = 0.0821277 W

          LoadQ:
            Area = 0.0430063 mm^2
            Peak Dynamic = 0.0139848 W
            Subthreshold Leakage = 0.00238113 W
            Subthreshold Leakage with power gating = 0.00135725 W
            Gate Leakage = 0.000855022 W
            Runtime Dynamic = 0.0139848 W

          StoreQ:
            Area = 0.0515274 mm^2
            Peak Dynamic = 0.0181615 W
            Subthreshold Leakage = 0.00333321 W
            Subthreshold Leakage with power gating = 0.00189993 W
            Gate Leakage = 0.00112608 W
            Runtime Dynamic = 0.036323 W

      Memory Management Unit:
        Area = 0.100456 mm^2
        Peak Dynamic = 0.10273 W
        Subthreshold Leakage = 0.0106657 W
        Subthreshold Leakage with power gating = 0.00500875 W
        Gate Leakage = 0.0062802 W
        Runtime Dynamic = 0.0144786 W

          Itlb:
            Area = 0.0319967 mm^2
            Peak Dynamic = 0.0179001 W
            Subthreshold Leakage = 0.00232604 W
            Subthreshold Leakage with power gating = 0.00132584 W
            Gate Leakage = 0.000775623 W
            Runtime Dynamic = 0.00266994 W

          Dtlb:
            Area = 0.0456762 mm^2
            Peak Dynamic = 0.0116573 W
            Subthreshold Leakage = 0.00373455 W
            Subthreshold Leakage with power gating = 0.00212869 W
            Gate Leakage = 0.00120491 W
            Runtime Dynamic = 0.0118086 W

      Execution Unit:
        Area = 4.30453 mm^2
        Peak Dynamic = 2.5921 W
        Subthreshold Leakage = 0.36545 W
        Subthreshold Leakage with power gating = 0.129924 W
        Gate Leakage = 0.137753 W
        Runtime Dynamic = 1.05324 W

          Register Files:
            Area = 0.293668 mm^2
            Peak Dynamic = 0.0313236 W
            Subthreshold Leakage = 0.00262543 W
            Subthreshold Leakage with power gating = 0.000992351 W
            Gate Leakage = 0.00090702 W
            Runtime Dynamic = 0.0180765 W

              Integer RF:
                Area = 0.186234 mm^2
                Peak Dynamic = 0.0198756 W
                Subthreshold Leakage = 0.00159167 W
                Subthreshold Leakage with power gating = 0.000581031 W
                Gate Leakage = 0.000571424 W
                Runtime Dynamic = 0.0159387 W

              Floating Point RF:
                Area = 0.107434 mm^2
                Peak Dynamic = 0.011448 W
                Subthreshold Leakage = 0.00103377 W
                Subthreshold Leakage with power gating = 0.00041132 W
                Gate Leakage = 0.000335596 W
                Runtime Dynamic = 0.00213785 W

          Instruction Scheduler:
            Area = 1.11343 mm^2
            Peak Dynamic = 2.36434 W
            Subthreshold Leakage = 0.0299356 W
            Subthreshold Leakage with power gating = 0.0165819 W
            Gate Leakage = 0.0107484 W
            Runtime Dynamic = 0.229422 W

              Instruction Window:
                Area = 0.519531 mm^2
                Peak Dynamic = 1.01319 W
                Subthreshold Leakage = 0.0210861 W
                Subthreshold Leakage with power gating = 0.0119994 W
                Gate Leakage = 0.00784113 W
                Runtime Dynamic = 0.102634 W

              FP Instruction Window:
                Area = 0.167689 mm^2
                Peak Dynamic = 0.592068 W
                Subthreshold Leakage = 0.00447456 W
                Subthreshold Leakage with power gating = 0.00253081 W
                Gate Leakage = 0.0017016 W
                Runtime Dynamic = 0.0595722 W

              ROB:
                Area = 0.426209 mm^2
                Peak Dynamic = 0.75908 W
                Subthreshold Leakage = 0.00437495 W
                Subthreshold Leakage with power gating = 0.0020517 W
                Gate Leakage = 0.00120572 W
                Runtime Dynamic = 0.0672155 W

          Integer ALUs (Count: 6 ):
            Area = 0.329609 mm^2
            Peak Dynamic = 0.0546771 W
            Subthreshold Leakage = 0.0927722 W
            Subthreshold Leakage with power gating = 0.0313106 W
            Gate Leakage = 0.0344197 W
            Runtime Dynamic = 0.149337 W

          Floating Point Units (FPUs) (Count: 2 ):
            Area = 2.35571 mm^2
            Peak Dynamic = 0.0719578 W
            Subthreshold Leakage = 0.16576 W
            Subthreshold Leakage with power gating = 0.055944 W
            Gate Leakage = 0.0614991 W
            Runtime Dynamic = 0.325322 W

          Complex ALUs (Mul/Div) (Count: 1 ):
            Area = 0.164805 mm^2
            Peak Dynamic = 0.0144356 W
            Subthreshold Leakage = 0.0463861 W
            Subthreshold Leakage with power gating = 0.0156553 W
            Gate Leakage = 0.0172098 W
            Runtime Dynamic = 0.20733 W

          Results Broadcast Bus:
            Area Overhead = 0.0245306 mm^2
            Peak Dynamic = 0.0496778 W
            Subthreshold Leakage = 0.0233657 W
            Subthreshold Leakage with power gating = 0.00788591 W
            Gate Leakage = 0.00866896 W
            Runtime Dynamic = 0.123756 W

*****************************************************************************************
Core:
      Area = 12.6963 mm^2
      Peak Dynamic = 7.79039 W
      Subthreshold Leakage = 1.14508 W
      Subthreshold Leakage with power gating = 0.431469 W
      Gate Leakage = 0.431123 W
      Runtime Dynamic = 1.38845 W

      Instruction Fetch Unit:
        Area = 3.04058 mm^2
        Peak Dynamic = 1.98321 W
        Subthreshold Leakage = 0.226888 W
        Subthreshold Leakage with power gating = 0.0933342 W
        Gate Leakage = 0.082348 W
        Runtime Dynamic = 0.118886 W

          Instruction Cache:
            Area = 1.60147 mm^2
            Peak Dynamic = 0.974596 W
            Subthreshold Leakage = 0.093335 W
            Subthreshold Leakage with power gating = 0.044301 W
            Gate Leakage = 0.042566 W
            Runtime Dynamic = 0.0551646 W

          Branch Target Buffer:
            Area = 0.397072 mm^2
            Peak Dynamic = 0.0840866 W
            Subthreshold Leakage = 0.02173 W
            Subthreshold Leakage with power gating = 0.0105914 W
            Gate Leakage = 0.00551055 W
            Runtime Dynamic = 0.00370903 W

          Branch Predictor:
            Area = 0.0686002 mm^2
            Peak Dynamic = 0.0275933 W
            Subthreshold Leakage = 0.00468696 W
            Subthreshold Leakage with power gating = 0.00225328 W
            Gate Leakage = 0.00101062 W
            Runtime Dynamic = 0.00129256 W

              Global Predictor:
                Area = 0.0218979 mm^2
                Peak Dynamic = 0.0077921 W
                Subthreshold Leakage = 0.00178236 W
                Subthreshold Leakage with power gating = 0.000855551 W
                Gate Leakage = 0.000370196 W
                Runtime Dynamic = 0.000374692 W

              Local Predictor:
              L1_Local Predictor:
                Area = 0.0128884 mm^2
                Peak Dynamic = 0.00653673 W
                Subthreshold Leakage = 0.000903617 W
                Subthreshold Leakage with power gating = 0.000433877 W
                Gate Leakage = 0.000207902 W
                Runtime Dynamic = 0.000323952 W

              L2_Local Predictor:
                Area = 0.00661857 mm^2
                Peak Dynamic = 0.00333484 W
                Subthreshold Leakage = 0.000457985 W
                Subthreshold Leakage with power gating = 0.00021904 W
                Gate Leakage = 0.000109414 W
                Runtime Dynamic = 0.000165284 W

              Chooser:
                Area = 0.0218979 mm^2
                Peak Dynamic = 0.0077921 W
                Subthreshold Leakage = 0.00178236 W
                Subthreshold Leakage with power gating = 0.000855551 W
                Gate Leakage = 0.000370196 W
                Runtime Dynamic = 0.000374692 W

              RAS:
                Area = 0.00529751 mm^2
                Peak Dynamic = 0.00547237 W
                Subthreshold Leakage = 0.000218626 W
                Subthreshold Leakage with power gating = 0.000108298 W
                Gate Leakage = 6.23254e-05 W
                Runtime Dynamic = 0.000219228 W

          Instruction Buffer:
            Area = 0.0111146 mm^2
            Peak Dynamic = 0.290305 W
            Subthreshold Leakage = 0.000365712 W
            Subthreshold Leakage with power gating = 0.000153616 W
            Gate Leakage = 9.42121e-05 W
            Runtime Dynamic = 0.0149605 W

          Instruction Decoder:
            Area = 0.939544 mm^2
            Peak Dynamic = 0.566091 W
            Subthreshold Leakage = 0.102165 W
            Subthreshold Leakage with power gating = 0.0344807 W
            Gate Leakage = 0.028867 W
            Runtime Dynamic = 0.0437592 W

      Renaming Unit:
        Area = 0.187354 mm^2
        Peak Dynamic = 2.14888 W
        Subthreshold Leakage = 0.0176949 W
        Subthreshold Leakage with power gating = 0.00901078 W
        Gate Leakage = 0.0121236 W
        Runtime Dynamic = 0.0704454 W

          Int Front End RAT:
            Area = 0.0583904 mm^2
            Peak Dynamic = 0.386173 W
            Subthreshold Leakage = 0.00151853 W
            Subthreshold Leakage with power gating = 0.000865565 W
            Gate Leakage = 0.000537576 W
            Runtime Dynamic = 0.027285 W

          FP Front End RAT:
            Area = 0.0852001 mm^2
            Peak Dynamic = 1.61287 W
            Subthreshold Leakage = 0.0114141 W
            Subthreshold Leakage with power gating = 0.00650604 W
            Gate Leakage = 0.00723124 W
            Runtime Dynamic = 0.0398007 W

          Free List:
            Area = 0.0209802 mm^2
            Peak Dynamic = 0.0187401 W
            Subthreshold Leakage = 0.000157165 W
            Subthreshold Leakage with power gating = 8.49701e-05 W
            Gate Leakage = 5.50825e-05 W
            Runtime Dynamic = 0.00335969 W

      Load Store Unit:
        Area = 1.98568 mm^2
        Peak Dynamic = 0.963729 W
        Subthreshold Leakage = 0.0912613 W
        Subthreshold Leakage with power gating = 0.0480116 W
        Gate Leakage = 0.0319237 W
        Runtime Dynamic = 0.132048 W

          Data Cache:
            Area = 1.5316 mm^2
            Peak Dynamic = 0.916414 W
            Subthreshold Leakage = 0.0809419 W
            Subthreshold Leakage with power gating = 0.0432002 W
            Gate Leakage = 0.025643 W
            Runtime Dynamic = 0.0818298 W

          LoadQ:
            Area = 0.0430063 mm^2
            Peak Dynamic = 0.0139599 W
            Subthreshold Leakage = 0.00238113 W
            Subthreshold Leakage with power gating = 0.00135725 W
            Gate Leakage = 0.000855022 W
            Runtime Dynamic = 0.01396 W

          StoreQ:
            Area = 0.0515274 mm^2
            Peak Dynamic = 0.0181292 W
            Subthreshold Leakage = 0.00333321 W
            Subthreshold Leakage with power gating = 0.00189993 W
            Gate Leakage = 0.00112608 W
            Runtime Dynamic = 0.0362586 W

      Memory Management Unit:
        Area = 0.100456 mm^2
        Peak Dynamic = 0.102668 W
        Subthreshold Leakage = 0.0106657 W
        Subthreshold Leakage with power gating = 0.00500875 W
        Gate Leakage = 0.0062802 W
        Runtime Dynamic = 0.0144455 W

          Itlb:
            Area = 0.0319967 mm^2
            Peak Dynamic = 0.0178727 W
            Subthreshold Leakage = 0.00232604 W
            Subthreshold Leakage with power gating = 0.00132584 W
            Gate Leakage = 0.000775623 W
            Runtime Dynamic = 0.00266672 W

          Dtlb:
            Area = 0.0456762 mm^2
            Peak Dynamic = 0.0116365 W
            Subthreshold Leakage = 0.00373455 W
            Subthreshold Leakage with power gating = 0.00212869 W
            Gate Leakage = 0.00120491 W
            Runtime Dynamic = 0.0117788 W

      Execution Unit:
        Area = 4.30453 mm^2
        Peak Dynamic = 2.59191 W
        Subthreshold Leakage = 0.36545 W
        Subthreshold Leakage with power gating = 0.129924 W
        Gate Leakage = 0.137753 W
        Runtime Dynamic = 1.05262 W

          Register Files:
            Area = 0.293668 mm^2
            Peak Dynamic = 0.0312997 W
            Subthreshold Leakage = 0.00262543 W
            Subthreshold Leakage with power gating = 0.000992351 W
            Gate Leakage = 0.00090702 W
            Runtime Dynamic = 0.0180488 W

              Integer RF:
                Area = 0.186234 mm^2
                Peak Dynamic = 0.0198517 W
                Subthreshold Leakage = 0.00159167 W
                Subthreshold Leakage with power gating = 0.000581031 W
                Gate Leakage = 0.000571424 W
                Runtime Dynamic = 0.0159142 W

              Floating Point RF:
                Area = 0.107434 mm^2
                Peak Dynamic = 0.011448 W
                Subthreshold Leakage = 0.00103377 W
                Subthreshold Leakage with power gating = 0.00041132 W
                Gate Leakage = 0.000335596 W
                Runtime Dynamic = 0.00213456 W

          Instruction Scheduler:
            Area = 1.11343 mm^2
            Peak Dynamic = 2.36434 W
            Subthreshold Leakage = 0.0299356 W
            Subthreshold Leakage with power gating = 0.0165819 W
            Gate Leakage = 0.0107484 W
            Runtime Dynamic = 0.229072 W

              Instruction Window:
                Area = 0.519531 mm^2
                Peak Dynamic = 1.01319 W
                Subthreshold Leakage = 0.0210861 W
                Subthreshold Leakage with power gating = 0.0119994 W
                Gate Leakage = 0.00784113 W
                Runtime Dynamic = 0.102477 W

              FP Instruction Window:
                Area = 0.167689 mm^2
                Peak Dynamic = 0.592068 W
                Subthreshold Leakage = 0.00447456 W
                Subthreshold Leakage with power gating = 0.00253081 W
                Gate Leakage = 0.0017016 W
                Runtime Dynamic = 0.0594807 W

              ROB:
                Area = 0.426209 mm^2
                Peak Dynamic = 0.75908 W
                Subthreshold Leakage = 0.00437495 W
                Subthreshold Leakage with power gating = 0.0020517 W
                Gate Leakage = 0.00120572 W
                Runtime Dynamic = 0.0671147 W

          Integer ALUs (Count: 6 ):
            Area = 0.329609 mm^2
            Peak Dynamic = 0.0545775 W
            Subthreshold Leakage = 0.0927722 W
            Subthreshold Leakage with power gating = 0.0313106 W
            Gate Leakage = 0.0344197 W
            Runtime Dynamic = 0.149251 W

          Floating Point Units (FPUs) (Count: 2 ):
            Area = 2.35571 mm^2
            Peak Dynamic = 0.0719578 W
            Subthreshold Leakage = 0.16576 W
            Subthreshold Leakage with power gating = 0.055944 W
            Gate Leakage = 0.0614991 W
            Runtime Dynamic = 0.325322 W

          Complex ALUs (Mul/Div) (Count: 1 ):
            Area = 0.164805 mm^2
            Peak Dynamic = 0.0144356 W
            Subthreshold Leakage = 0.0463861 W
            Subthreshold Leakage with power gating = 0.0156553 W
            Gate Leakage = 0.0172098 W
            Runtime Dynamic = 0.20733 W

          Results Broadcast Bus:
            Area Overhead = 0.0245306 mm^2
            Peak Dynamic = 0.0496219 W
            Subthreshold Leakage = 0.0233657 W
            Subthreshold Leakage with power gating = 0.00788591 W
            Gate Leakage = 0.00866896 W
            Runtime Dynamic = 0.123598 W

*****************************************************************************************
Core:
      Area = 12.6963 mm^2
      Peak Dynamic = 7.79039 W
      Subthreshold Leakage = 1.14508 W
      Subthreshold Leakage with power gating = 0.431469 W
      Gate Leakage = 0.431123 W
      Runtime Dynamic = 1.38856 W

      Instruction Fetch Unit:
        Area = 3.04058 mm^2
        Peak Dynamic = 1.98321 W
        Subthreshold Leakage = 0.226888 W
        Subthreshold Leakage with power gating = 0.0933342 W
        Gate Leakage = 0.082348 W
        Runtime Dynamic = 0.118886 W

          Instruction Cache:
            Area = 1.60147 mm^2
            Peak Dynamic = 0.974596 W
            Subthreshold Leakage = 0.093335 W
            Subthreshold Leakage with power gating = 0.044301 W
            Gate Leakage = 0.042566 W
            Runtime Dynamic = 0.0551646 W

          Branch Target Buffer:
            Area = 0.397072 mm^2
            Peak Dynamic = 0.0840866 W
            Subthreshold Leakage = 0.02173 W
            Subthreshold Leakage with power gating = 0.0105914 W
            Gate Leakage = 0.00551055 W
            Runtime Dynamic = 0.00370903 W

          Branch Predictor:
            Area = 0.0686002 mm^2
            Peak Dynamic = 0.0275933 W
            Subthreshold Leakage = 0.00468696 W
            Subthreshold Leakage with power gating = 0.00225328 W
            Gate Leakage = 0.00101062 W
            Runtime Dynamic = 0.00129256 W

              Global Predictor:
                Area = 0.0218979 mm^2
                Peak Dynamic = 0.0077921 W
                Subthreshold Leakage = 0.00178236 W
                Subthreshold Leakage with power gating = 0.000855551 W
                Gate Leakage = 0.000370196 W
                Runtime Dynamic = 0.000374692 W

              Local Predictor:
              L1_Local Predictor:
                Area = 0.0128884 mm^2
                Peak Dynamic = 0.00653673 W
                Subthreshold Leakage = 0.000903617 W
                Subthreshold Leakage with power gating = 0.000433877 W
                Gate Leakage = 0.000207902 W
                Runtime Dynamic = 0.000323952 W

              L2_Local Predictor:
                Area = 0.00661857 mm^2
                Peak Dynamic = 0.00333484 W
                Subthreshold Leakage = 0.000457985 W
                Subthreshold Leakage with power gating = 0.00021904 W
                Gate Leakage = 0.000109414 W
                Runtime Dynamic = 0.000165284 W

              Chooser:
                Area = 0.0218979 mm^2
                Peak Dynamic = 0.0077921 W
                Subthreshold Leakage = 0.00178236 W
                Subthreshold Leakage with power gating = 0.000855551 W
                Gate Leakage = 0.000370196 W
                Runtime Dynamic = 0.000374692 W

              RAS:
                Area = 0.00529751 mm^2
                Peak Dynamic = 0.00547237 W
                Subthreshold Leakage = 0.000218626 W
                Subthreshold Leakage with power gating = 0.000108298 W
                Gate Leakage = 6.23254e-05 W
                Runtime Dynamic = 0.000219228 W

          Instruction Buffer:
            Area = 0.0111146 mm^2
            Peak Dynamic = 0.290305 W
            Subthreshold Leakage = 0.000365712 W
            Subthreshold Leakage with power gating = 0.000153616 W
            Gate Leakage = 9.42121e-05 W
            Runtime Dynamic = 0.0149605 W

          Instruction Decoder:
            Area = 0.939544 mm^2
            Peak Dynamic = 0.566091 W
            Subthreshold Leakage = 0.102165 W
            Subthreshold Leakage with power gating = 0.0344807 W
            Gate Leakage = 0.028867 W
            Runtime Dynamic = 0.0437592 W

      Renaming Unit:
        Area = 0.187354 mm^2
        Peak Dynamic = 2.14888 W
        Subthreshold Leakage = 0.0176949 W
        Subthreshold Leakage with power gating = 0.00901078 W
        Gate Leakage = 0.0121236 W
        Runtime Dynamic = 0.0704454 W

          Int Front End RAT:
            Area = 0.0583904 mm^2
            Peak Dynamic = 0.386173 W
            Subthreshold Leakage = 0.00151853 W
            Subthreshold Leakage with power gating = 0.000865565 W
            Gate Leakage = 0.000537576 W
            Runtime Dynamic = 0.027285 W

          FP Front End RAT:
            Area = 0.0852001 mm^2
            Peak Dynamic = 1.61287 W
            Subthreshold Leakage = 0.0114141 W
            Subthreshold Leakage with power gating = 0.00650604 W
            Gate Leakage = 0.00723124 W
            Runtime Dynamic = 0.0398007 W

          Free List:
            Area = 0.0209802 mm^2
            Peak Dynamic = 0.0187401 W
            Subthreshold Leakage = 0.000157165 W
            Subthreshold Leakage with power gating = 8.49701e-05 W
            Gate Leakage = 5.50825e-05 W
            Runtime Dynamic = 0.00335969 W

      Load Store Unit:
        Area = 1.98568 mm^2
        Peak Dynamic = 0.963729 W
        Subthreshold Leakage = 0.0912613 W
        Subthreshold Leakage with power gating = 0.0480116 W
        Gate Leakage = 0.0319237 W
        Runtime Dynamic = 0.132154 W

          Data Cache:
            Area = 1.5316 mm^2
            Peak Dynamic = 0.916414 W
            Subthreshold Leakage = 0.0809419 W
            Subthreshold Leakage with power gating = 0.0432002 W
            Gate Leakage = 0.025643 W
            Runtime Dynamic = 0.0819351 W

          LoadQ:
            Area = 0.0430063 mm^2
            Peak Dynamic = 0.0139599 W
            Subthreshold Leakage = 0.00238113 W
            Subthreshold Leakage with power gating = 0.00135725 W
            Gate Leakage = 0.000855022 W
            Runtime Dynamic = 0.01396 W

          StoreQ:
            Area = 0.0515274 mm^2
            Peak Dynamic = 0.0181292 W
            Subthreshold Leakage = 0.00333321 W
            Subthreshold Leakage with power gating = 0.00189993 W
            Gate Leakage = 0.00112608 W
            Runtime Dynamic = 0.0362586 W

      Memory Management Unit:
        Area = 0.100456 mm^2
        Peak Dynamic = 0.102668 W
        Subthreshold Leakage = 0.0106657 W
        Subthreshold Leakage with power gating = 0.00500875 W
        Gate Leakage = 0.0062802 W
        Runtime Dynamic = 0.0144488 W

          Itlb:
            Area = 0.0319967 mm^2
            Peak Dynamic = 0.0178727 W
            Subthreshold Leakage = 0.00232604 W
            Subthreshold Leakage with power gating = 0.00132584 W
            Gate Leakage = 0.000775623 W
            Runtime Dynamic = 0.00266672 W

          Dtlb:
            Area = 0.0456762 mm^2
            Peak Dynamic = 0.0116365 W
            Subthreshold Leakage = 0.00373455 W
            Subthreshold Leakage with power gating = 0.00212869 W
            Gate Leakage = 0.00120491 W
            Runtime Dynamic = 0.011782 W

      Execution Unit:
        Area = 4.30453 mm^2
        Peak Dynamic = 2.59191 W
        Subthreshold Leakage = 0.36545 W
        Subthreshold Leakage with power gating = 0.129924 W
        Gate Leakage = 0.137753 W
        Runtime Dynamic = 1.05262 W

          Register Files:
            Area = 0.293668 mm^2
            Peak Dynamic = 0.0312997 W
            Subthreshold Leakage = 0.00262543 W
            Subthreshold Leakage with power gating = 0.000992351 W
            Gate Leakage = 0.00090702 W
            Runtime Dynamic = 0.0180488 W

              Integer RF:
                Area = 0.186234 mm^2
                Peak Dynamic = 0.0198517 W
                Subthreshold Leakage = 0.00159167 W
                Subthreshold Leakage with power gating = 0.000581031 W
                Gate Leakage = 0.000571424 W
                Runtime Dynamic = 0.0159142 W

              Floating Point RF:
                Area = 0.107434 mm^2
                Peak Dynamic = 0.011448 W
                Subthreshold Leakage = 0.00103377 W
                Subthreshold Leakage with power gating = 0.00041132 W
                Gate Leakage = 0.000335596 W
                Runtime Dynamic = 0.00213456 W

          Instruction Scheduler:
            Area = 1.11343 mm^2
            Peak Dynamic = 2.36434 W
            Subthreshold Leakage = 0.0299356 W
            Subthreshold Leakage with power gating = 0.0165819 W
            Gate Leakage = 0.0107484 W
            Runtime Dynamic = 0.229072 W

              Instruction Window:
                Area = 0.519531 mm^2
                Peak Dynamic = 1.01319 W
                Subthreshold Leakage = 0.0210861 W
                Subthreshold Leakage with power gating = 0.0119994 W
                Gate Leakage = 0.00784113 W
                Runtime Dynamic = 0.102477 W

              FP Instruction Window:
                Area = 0.167689 mm^2
                Peak Dynamic = 0.592068 W
                Subthreshold Leakage = 0.00447456 W
                Subthreshold Leakage with power gating = 0.00253081 W
                Gate Leakage = 0.0017016 W
                Runtime Dynamic = 0.0594807 W

              ROB:
                Area = 0.426209 mm^2
                Peak Dynamic = 0.75908 W
                Subthreshold Leakage = 0.00437495 W
                Subthreshold Leakage with power gating = 0.0020517 W
                Gate Leakage = 0.00120572 W
                Runtime Dynamic = 0.0671147 W

          Integer ALUs (Count: 6 ):
            Area = 0.329609 mm^2
            Peak Dynamic = 0.0545775 W
            Subthreshold Leakage = 0.0927722 W
            Subthreshold Leakage with power gating = 0.0313106 W
            Gate Leakage = 0.0344197 W
            Runtime Dynamic = 0.149251 W

          Floating Point Units (FPUs) (Count: 2 ):
            Area = 2.35571 mm^2
            Peak Dynamic = 0.0719578 W
            Subthreshold Leakage = 0.16576 W
            Subthreshold Leakage with power gating = 0.055944 W
            Gate Leakage = 0.0614991 W
            Runtime Dynamic = 0.325322 W

          Complex ALUs (Mul/Div) (Count: 1 ):
            Area = 0.164805 mm^2
            Peak Dynamic = 0.0144356 W
            Subthreshold Leakage = 0.0463861 W
            Subthreshold Leakage with power gating = 0.0156553 W
            Gate Leakage = 0.0172098 W
            Runtime Dynamic = 0.20733 W

          Results Broadcast Bus:
            Area Overhead = 0.0245306 mm^2
            Peak Dynamic = 0.0496219 W
            Subthreshold Leakage = 0.0233657 W
            Subthreshold Leakage with power gating = 0.00788591 W
            Gate Leakage = 0.00866896 W
            Runtime Dynamic = 0.123598 W

*****************************************************************************************
Core:
      Area = 12.6963 mm^2
      Peak Dynamic = 7.79035 W
      Subthreshold Leakage = 1.14508 W
      Subthreshold Leakage with power gating = 0.431469 W
      Gate Leakage = 0.431123 W
      Runtime Dynamic = 1.38953 W

      Instruction Fetch Unit:
        Area = 3.04058 mm^2
        Peak Dynamic = 1.98317 W
        Subthreshold Leakage = 0.226888 W
        Subthreshold Leakage with power gating = 0.0933342 W
        Gate Leakage = 0.082348 W
        Runtime Dynamic = 0.118872 W

          Instruction Cache:
            Area = 1.60147 mm^2
            Peak Dynamic = 0.974562 W
            Subthreshold Leakage = 0.093335 W
            Subthreshold Leakage with power gating = 0.044301 W
            Gate Leakage = 0.042566 W
            Runtime Dynamic = 0.0551529 W

          Branch Target Buffer:
            Area = 0.397072 mm^2
            Peak Dynamic = 0.0840866 W
            Subthreshold Leakage = 0.02173 W
            Subthreshold Leakage with power gating = 0.0105914 W
            Gate Leakage = 0.00551055 W
            Runtime Dynamic = 0.00370868 W

          Branch Predictor:
            Area = 0.0686002 mm^2
            Peak Dynamic = 0.0275933 W
            Subthreshold Leakage = 0.00468696 W
            Subthreshold Leakage with power gating = 0.00225328 W
            Gate Leakage = 0.00101062 W
            Runtime Dynamic = 0.00129243 W

              Global Predictor:
                Area = 0.0218979 mm^2
                Peak Dynamic = 0.0077921 W
                Subthreshold Leakage = 0.00178236 W
                Subthreshold Leakage with power gating = 0.000855551 W
                Gate Leakage = 0.000370196 W
                Runtime Dynamic = 0.000374647 W

              Local Predictor:
              L1_Local Predictor:
                Area = 0.0128884 mm^2
                Peak Dynamic = 0.00653673 W
                Subthreshold Leakage = 0.000903617 W
                Subthreshold Leakage with power gating = 0.000433877 W
                Gate Leakage = 0.000207902 W
                Runtime Dynamic = 0.00032391 W

              L2_Local Predictor:
                Area = 0.00661857 mm^2
                Peak Dynamic = 0.00333484 W
                Subthreshold Leakage = 0.000457985 W
                Subthreshold Leakage with power gating = 0.00021904 W
                Gate Leakage = 0.000109414 W
                Runtime Dynamic = 0.000165262 W

              Chooser:
                Area = 0.0218979 mm^2
                Peak Dynamic = 0.0077921 W
                Subthreshold Leakage = 0.00178236 W
                Subthreshold Leakage with power gating = 0.000855551 W
                Gate Leakage = 0.000370196 W
                Runtime Dynamic = 0.000374647 W

              RAS:
                Area = 0.00529751 mm^2
                Peak Dynamic = 0.00547237 W
                Subthreshold Leakage = 0.000218626 W
                Subthreshold Leakage with power gating = 0.000108298 W
                Gate Leakage = 6.23254e-05 W
                Runtime Dynamic = 0.000219222 W

          Instruction Buffer:
            Area = 0.0111146 mm^2
            Peak Dynamic = 0.290305 W
            Subthreshold Leakage = 0.000365712 W
            Subthreshold Leakage with power gating = 0.000153616 W
            Gate Leakage = 9.42121e-05 W
            Runtime Dynamic = 0.01496 W

          Instruction Decoder:
            Area = 0.939544 mm^2
            Peak Dynamic = 0.566091 W
            Subthreshold Leakage = 0.102165 W
            Subthreshold Leakage with power gating = 0.0344807 W
            Gate Leakage = 0.028867 W
            Runtime Dynamic = 0.0437577 W

      Renaming Unit:
        Area = 0.187354 mm^2
        Peak Dynamic = 2.14888 W
        Subthreshold Leakage = 0.0176949 W
        Subthreshold Leakage with power gating = 0.00901078 W
        Gate Leakage = 0.0121236 W
        Runtime Dynamic = 0.0704443 W

          Int Front End RAT:
            Area = 0.0583904 mm^2
            Peak Dynamic = 0.386173 W
            Subthreshold Leakage = 0.00151853 W
            Subthreshold Leakage with power gating = 0.000865565 W
            Gate Leakage = 0.000537576 W
            Runtime Dynamic = 0.027284 W

          FP Front End RAT:
            Area = 0.0852001 mm^2
            Peak Dynamic = 1.61287 W
            Subthreshold Leakage = 0.0114141 W
            Subthreshold Leakage with power gating = 0.00650604 W
            Gate Leakage = 0.00723124 W
            Runtime Dynamic = 0.0398007 W

          Free List:
            Area = 0.0209802 mm^2
            Peak Dynamic = 0.0187401 W
            Subthreshold Leakage = 0.000157165 W
            Subthreshold Leakage with power gating = 8.49701e-05 W
            Gate Leakage = 5.50825e-05 W
            Runtime Dynamic = 0.00335958 W

      Load Store Unit:
        Area = 1.98568 mm^2
        Peak Dynamic = 0.963726 W
        Subthreshold Leakage = 0.0912613 W
        Subthreshold Leakage with power gating = 0.0480116 W
        Gate Leakage = 0.0319237 W
        Runtime Dynamic = 0.133135 W

          Data Cache:
            Area = 1.5316 mm^2
            Peak Dynamic = 0.916412 W
            Subthreshold Leakage = 0.0809419 W
            Subthreshold Leakage with power gating = 0.0432002 W
            Gate Leakage = 0.025643 W
            Runtime Dynamic = 0.0829168 W

          LoadQ:
            Area = 0.0430063 mm^2
            Peak Dynamic = 0.0139598 W
            Subthreshold Leakage = 0.00238113 W
            Subthreshold Leakage with power gating = 0.00135725 W
            Gate Leakage = 0.000855022 W
            Runtime Dynamic = 0.0139598 W

          StoreQ:
            Area = 0.0515274 mm^2
            Peak Dynamic = 0.0181291 W
            Subthreshold Leakage = 0.00333321 W
            Subthreshold Leakage with power gating = 0.00189993 W
            Gate Leakage = 0.00112608 W
            Runtime Dynamic = 0.0362581 W

      Memory Management Unit:
        Area = 0.100456 mm^2
        Peak Dynamic = 0.102667 W
        Subthreshold Leakage = 0.0106657 W
        Subthreshold Leakage with power gating = 0.00500875 W
        Gate Leakage = 0.0062802 W
        Runtime Dynamic = 0.0144721 W

          Itlb:
            Area = 0.0319967 mm^2
            Peak Dynamic = 0.017872 W
            Subthreshold Leakage = 0.00232604 W
            Subthreshold Leakage with power gating = 0.00132584 W
            Gate Leakage = 0.000775623 W
            Runtime Dynamic = 0.00266645 W

          Dtlb:
            Area = 0.0456762 mm^2
            Peak Dynamic = 0.0116364 W
            Subthreshold Leakage = 0.00373455 W
            Subthreshold Leakage with power gating = 0.00212869 W
            Gate Leakage = 0.00120491 W
            Runtime Dynamic = 0.0118056 W

      Execution Unit:
        Area = 4.30453 mm^2
        Peak Dynamic = 2.59191 W
        Subthreshold Leakage = 0.36545 W
        Subthreshold Leakage with power gating = 0.129924 W
        Gate Leakage = 0.137753 W
        Runtime Dynamic = 1.05261 W

          Register Files:
            Area = 0.293668 mm^2
            Peak Dynamic = 0.0312991 W
            Subthreshold Leakage = 0.00262543 W
            Subthreshold Leakage with power gating = 0.000992351 W
            Gate Leakage = 0.00090702 W
            Runtime Dynamic = 0.0180481 W

              Integer RF:
                Area = 0.186234 mm^2
                Peak Dynamic = 0.0198511 W
                Subthreshold Leakage = 0.00159167 W
                Subthreshold Leakage with power gating = 0.000581031 W
                Gate Leakage = 0.000571424 W
                Runtime Dynamic = 0.0159136 W

              Floating Point RF:
                Area = 0.107434 mm^2
                Peak Dynamic = 0.011448 W
                Subthreshold Leakage = 0.00103377 W
                Subthreshold Leakage with power gating = 0.00041132 W
                Gate Leakage = 0.000335596 W
                Runtime Dynamic = 0.00213449 W

          Instruction Scheduler:
            Area = 1.11343 mm^2
            Peak Dynamic = 2.36434 W
            Subthreshold Leakage = 0.0299356 W
            Subthreshold Leakage with power gating = 0.0165819 W
            Gate Leakage = 0.0107484 W
            Runtime Dynamic = 0.229064 W

              Instruction Window:
                Area = 0.519531 mm^2
                Peak Dynamic = 1.01319 W
                Subthreshold Leakage = 0.0210861 W
                Subthreshold Leakage with power gating = 0.0119994 W
                Gate Leakage = 0.00784113 W
                Runtime Dynamic = 0.102473 W

              FP Instruction Window:
                Area = 0.167689 mm^2
                Peak Dynamic = 0.592068 W
                Subthreshold Leakage = 0.00447456 W
                Subthreshold Leakage with power gating = 0.00253081 W
                Gate Leakage = 0.0017016 W
                Runtime Dynamic = 0.0594786 W

              ROB:
                Area = 0.426209 mm^2
                Peak Dynamic = 0.75908 W
                Subthreshold Leakage = 0.00437495 W
                Subthreshold Leakage with power gating = 0.0020517 W
                Gate Leakage = 0.00120572 W
                Runtime Dynamic = 0.0671122 W

          Integer ALUs (Count: 6 ):
            Area = 0.329609 mm^2
            Peak Dynamic = 0.054575 W
            Subthreshold Leakage = 0.0927722 W
            Subthreshold Leakage with power gating = 0.0313106 W
            Gate Leakage = 0.0344197 W
            Runtime Dynamic = 0.149249 W

          Floating Point Units (FPUs) (Count: 2 ):
            Area = 2.35571 mm^2
            Peak Dynamic = 0.0719578 W
            Subthreshold Leakage = 0.16576 W
            Subthreshold Leakage with power gating = 0.055944 W
            Gate Leakage = 0.0614991 W
            Runtime Dynamic = 0.325322 W

          Complex ALUs (Mul/Div) (Count: 1 ):
            Area = 0.164805 mm^2
            Peak Dynamic = 0.0144356 W
            Subthreshold Leakage = 0.0463861 W
            Subthreshold Leakage with power gating = 0.0156553 W
            Gate Leakage = 0.0172098 W
            Runtime Dynamic = 0.20733 W

          Results Broadcast Bus:
            Area Overhead = 0.0245306 mm^2
            Peak Dynamic = 0.0496205 W
            Subthreshold Leakage = 0.0233657 W
            Subthreshold Leakage with power gating = 0.00788591 W
            Gate Leakage = 0.00866896 W
            Runtime Dynamic = 0.123595 W

*****************************************************************************************
Core:
      Area = 12.6963 mm^2
      Peak Dynamic = 7.79035 W
      Subthreshold Leakage = 1.14508 W
      Subthreshold Leakage with power gating = 0.431469 W
      Gate Leakage = 0.431123 W
      Runtime Dynamic = 1.38854 W

      Instruction Fetch Unit:
        Area = 3.04058 mm^2
        Peak Dynamic = 1.98317 W
        Subthreshold Leakage = 0.226888 W
        Subthreshold Leakage with power gating = 0.0933342 W
        Gate Leakage = 0.082348 W
        Runtime Dynamic = 0.118872 W

          Instruction Cache:
            Area = 1.60147 mm^2
            Peak Dynamic = 0.974562 W
            Subthreshold Leakage = 0.093335 W
            Subthreshold Leakage with power gating = 0.044301 W
            Gate Leakage = 0.042566 W
            Runtime Dynamic = 0.0551529 W

          Branch Target Buffer:
            Area = 0.397072 mm^2
            Peak Dynamic = 0.0840866 W
            Subthreshold Leakage = 0.02173 W
            Subthreshold Leakage with power gating = 0.0105914 W
            Gate Leakage = 0.00551055 W
            Runtime Dynamic = 0.00370868 W

          Branch Predictor:
            Area = 0.0686002 mm^2
            Peak Dynamic = 0.0275933 W
            Subthreshold Leakage = 0.00468696 W
            Subthreshold Leakage with power gating = 0.00225328 W
            Gate Leakage = 0.00101062 W
            Runtime Dynamic = 0.00129243 W

              Global Predictor:
                Area = 0.0218979 mm^2
                Peak Dynamic = 0.0077921 W
                Subthreshold Leakage = 0.00178236 W
                Subthreshold Leakage with power gating = 0.000855551 W
                Gate Leakage = 0.000370196 W
                Runtime Dynamic = 0.000374647 W

              Local Predictor:
              L1_Local Predictor:
                Area = 0.0128884 mm^2
                Peak Dynamic = 0.00653673 W
                Subthreshold Leakage = 0.000903617 W
                Subthreshold Leakage with power gating = 0.000433877 W
                Gate Leakage = 0.000207902 W
                Runtime Dynamic = 0.00032391 W

              L2_Local Predictor:
                Area = 0.00661857 mm^2
                Peak Dynamic = 0.00333484 W
                Subthreshold Leakage = 0.000457985 W
                Subthreshold Leakage with power gating = 0.00021904 W
                Gate Leakage = 0.000109414 W
[...]
            Subthreshold Leakage = 0.0809419 W
            Subthreshold Leakage with power gating = 0.0432002 W
            Gate Leakage = 0.025643 W
            Runtime Dynamic = 0.0830703 W

          LoadQ:
            Area = 0.0430063 mm^2
            Peak Dynamic = 0.0139606 W
            Subthreshold Leakage = 0.00238113 W
            Subthreshold Leakage with power gating = 0.00135725 W
            Gate Leakage = 0.000855022 W
            Runtime Dynamic = 0.0139606 W

          StoreQ:
            Area = 0.0515274 mm^2
            Peak Dynamic = 0.0181302 W
            Subthreshold Leakage = 0.00333321 W
            Subthreshold Leakage with power gating = 0.00189993 W
            Gate Leakage = 0.00112608 W
            Runtime Dynamic = 0.0362603 W

      Memory Management Unit:
        Area = 0.100456 mm^2
        Peak Dynamic = 0.102669 W
        Subthreshold Leakage = 0.0106657 W
        Subthreshold Leakage with power gating = 0.00500875 W
        Gate Leakage = 0.0062802 W
        Runtime Dynamic = 0.0144834 W

          Itlb:
            Area = 0.0319967 mm^2
            Peak Dynamic = 0.0178732 W
            Subthreshold Leakage = 0.00232604 W
            Subthreshold Leakage with power gating = 0.00132584 W
            Gate Leakage = 0.000775623 W
            Runtime Dynamic = 0.00266673 W

          Dtlb:
            Area = 0.0456762 mm^2
            Peak Dynamic = 0.0116372 W
            Subthreshold Leakage = 0.00373455 W
            Subthreshold Leakage with power gating = 0.00212869 W
            Gate Leakage = 0.00120491 W
            Runtime Dynamic = 0.0118166 W

      Execution Unit:
        Area = 4.30453 mm^2
        Peak Dynamic = 2.59191 W
        Subthreshold Leakage = 0.36545 W
        Subthreshold Leakage with power gating = 0.129924 W
        Gate Leakage = 0.137753 W
        Runtime Dynamic = 1.05264 W

          Register Files:
            Area = 0.293668 mm^2
            Peak Dynamic = 0.0313003 W
            Subthreshold Leakage = 0.00262543 W
            Subthreshold Leakage with power gating = 0.000992351 W
            Gate Leakage = 0.00090702 W
            Runtime Dynamic = 0.0180493 W

              Integer RF:
                Area = 0.186234 mm^2
                Peak Dynamic = 0.0198523 W
                Subthreshold Leakage = 0.00159167 W
                Subthreshold Leakage with power gating = 0.000581031 W
                Gate Leakage = 0.000571424 W
                Runtime Dynamic = 0.0159147 W

              Floating Point RF:
                Area = 0.107434 mm^2
                Peak Dynamic = 0.011448 W
                Subthreshold Leakage = 0.00103377 W
                Subthreshold Leakage with power gating = 0.00041132 W
                Gate Leakage = 0.000335596 W
                Runtime Dynamic = 0.00213463 W

          Instruction Scheduler:
            Area = 1.11343 mm^2
            Peak Dynamic = 2.36434 W
            Subthreshold Leakage = 0.0299356 W
            Subthreshold Leakage with power gating = 0.0165819 W
            Gate Leakage = 0.0107484 W
            Runtime Dynamic = 0.229079 W

              Instruction Window:
                Area = 0.519531 mm^2
                Peak Dynamic = 1.01319 W
                Subthreshold Leakage = 0.0210861 W
                Subthreshold Leakage with power gating = 0.0119994 W
                Gate Leakage = 0.00784113 W
                Runtime Dynamic = 0.10248 W

              FP Instruction Window:
                Area = 0.167689 mm^2
                Peak Dynamic = 0.592068 W
                Subthreshold Leakage = 0.00447456 W
                Subthreshold Leakage with power gating = 0.00253081 W
                Gate Leakage = 0.0017016 W
                Runtime Dynamic = 0.0594825 W

              ROB:
                Area = 0.426209 mm^2
                Peak Dynamic = 0.75908 W
                Subthreshold Leakage = 0.00437495 W
                Subthreshold Leakage with power gating = 0.0020517 W
                Gate Leakage = 0.00120572 W
                Runtime Dynamic = 0.0671166 W

          Integer ALUs (Count: 6 ):
            Area = 0.329609 mm^2
            Peak Dynamic = 0.05458 W
            Subthreshold Leakage = 0.0927722 W
            Subthreshold Leakage with power gating = 0.0313106 W
            Gate Leakage = 0.0344197 W
            Runtime Dynamic = 0.149253 W

          Floating Point Units (FPUs) (Count: 2 ):
            Area = 2.35571 mm^2
            Peak Dynamic = 0.0719578 W
            Subthreshold Leakage = 0.16576 W
            Subthreshold Leakage with power gating = 0.055944 W
            Gate Leakage = 0.0614991 W
            Runtime Dynamic = 0.325322 W

          Complex ALUs (Mul/Div) (Count: 1 ):
            Area = 0.164805 mm^2
            Peak Dynamic = 0.0144356 W
            Subthreshold Leakage = 0.0463861 W
            Subthreshold Leakage with power gating = 0.0156553 W
            Gate Leakage = 0.0172098 W
            Runtime Dynamic = 0.20733 W

          Results Broadcast Bus:
            Area Overhead = 0.0245306 mm^2
            Peak Dynamic = 0.0496233 W
            Subthreshold Leakage = 0.0233657 W
            Subthreshold Leakage with power gating = 0.00788591 W
            Gate Leakage = 0.00866896 W
            Runtime Dynamic = 0.123602 W

*****************************************************************************************
Core:
      Area = 12.6963 mm^2
      Peak Dynamic = 7.79034 W
      Subthreshold Leakage = 1.14508 W
      Subthreshold Leakage with power gating = 0.431469 W
      Gate Leakage = 0.431123 W
      Runtime Dynamic = 1.38985 W

      Instruction Fetch Unit:
        Area = 3.04058 mm^2
        Peak Dynamic = 1.98316 W
        Subthreshold Leakage = 0.226888 W
        Subthreshold Leakage with power gating = 0.0933342 W
        Gate Leakage = 0.082348 W
        Runtime Dynamic = 0.118869 W

          Instruction Cache:
            Area = 1.60147 mm^2
            Peak Dynamic = 0.974555 W
            Subthreshold Leakage = 0.093335 W
            Subthreshold Leakage with power gating = 0.044301 W
            Gate Leakage = 0.042566 W
            Runtime Dynamic = 0.0551507 W

          Branch Target Buffer:
            Area = 0.397072 mm^2
            Peak Dynamic = 0.0840866 W
            Subthreshold Leakage = 0.02173 W
            Subthreshold Leakage with power gating = 0.0105914 W
            Gate Leakage = 0.00551055 W
            Runtime Dynamic = 0.00370861 W

          Branch Predictor:
            Area = 0.0686002 mm^2
            Peak Dynamic = 0.0275933 W
            Subthreshold Leakage = 0.00468696 W
            Subthreshold Leakage with power gating = 0.00225328 W
            Gate Leakage = 0.00101062 W
            Runtime Dynamic = 0.0012924 W

              Global Predictor:
                Area = 0.0218979 mm^2
                Peak Dynamic = 0.0077921 W
                Subthreshold Leakage = 0.00178236 W
                Subthreshold Leakage with power gating = 0.000855551 W
                Gate Leakage = 0.000370196 W
                Runtime Dynamic = 0.000374636 W

              Local Predictor:
              L1_Local Predictor:
                Area = 0.0128884 mm^2
                Peak Dynamic = 0.00653673 W
                Subthreshold Leakage = 0.000903617 W
                Subthreshold Leakage with power gating = 0.000433877 W
                Gate Leakage = 0.000207902 W
                Runtime Dynamic = 0.000323901 W

              L2_Local Predictor:
                Area = 0.00661857 mm^2
                Peak Dynamic = 0.00333484 W
                Subthreshold Leakage = 0.000457985 W
                Subthreshold Leakage with power gating = 0.00021904 W
                Gate Leakage = 0.000109414 W
                Runtime Dynamic = 0.000165258 W

              Chooser:
                Area = 0.0218979 mm^2
                Peak Dynamic = 0.0077921 W
                Subthreshold Leakage = 0.00178236 W
                Subthreshold Leakage with power gating = 0.000855551 W
                Gate Leakage = 0.000370196 W
                Runtime Dynamic = 0.000374636 W

              RAS:
                Area = 0.00529751 mm^2
                Peak Dynamic = 0.00547237 W
                Subthreshold Leakage = 0.000218626 W
                Subthreshold Leakage with power gating = 0.000108298 W
                Gate Leakage = 6.23254e-05 W
                Runtime Dynamic = 0.000219222 W

          Instruction Buffer:
            Area = 0.0111146 mm^2
            Peak Dynamic = 0.290305 W
            Subthreshold Leakage = 0.000365712 W
            Subthreshold Leakage with power gating = 0.000153616 W
            Gate Leakage = 9.42121e-05 W
            Runtime Dynamic = 0.0149599 W

          Instruction Decoder:
            Area = 0.939544 mm^2
            Peak Dynamic = 0.566091 W
            Subthreshold Leakage = 0.102165 W
            Subthreshold Leakage with power gating = 0.0344807 W
            Gate Leakage = 0.028867 W
            Runtime Dynamic = 0.0437573 W

      Renaming Unit:
        Area = 0.187354 mm^2
        Peak Dynamic = 2.14888 W
        Subthreshold Leakage = 0.0176949 W
        Subthreshold Leakage with power gating = 0.00901078 W
        Gate Leakage = 0.0121236 W
        Runtime Dynamic = 0.0704441 W

          Int Front End RAT:
            Area = 0.0583904 mm^2
            Peak Dynamic = 0.386173 W
            Subthreshold Leakage = 0.00151853 W
            Subthreshold Leakage with power gating = 0.000865565 W
            Gate Leakage = 0.000537576 W
            Runtime Dynamic = 0.0272838 W

          FP Front End RAT:
            Area = 0.0852001 mm^2
            Peak Dynamic = 1.61287 W
            Subthreshold Leakage = 0.0114141 W
            Subthreshold Leakage with power gating = 0.00650604 W
            Gate Leakage = 0.00723124 W
            Runtime Dynamic = 0.0398007 W

          Free List:
            Area = 0.0209802 mm^2
            Peak Dynamic = 0.0187401 W
            Subthreshold Leakage = 0.000157165 W
            Subthreshold Leakage with power gating = 8.49701e-05 W
            Gate Leakage = 5.50825e-05 W
            Runtime Dynamic = 0.00335956 W

      Load Store Unit:
        Area = 1.98568 mm^2
        Peak Dynamic = 0.963723 W
        Subthreshold Leakage = 0.0912613 W
        Subthreshold Leakage with power gating = 0.0480116 W
        Gate Leakage = 0.0319237 W
        Runtime Dynamic = 0.133451 W

          Data Cache:
            Area = 1.5316 mm^2
            Peak Dynamic = 0.916409 W
            Subthreshold Leakage = 0.0809419 W
            Subthreshold Leakage with power gating = 0.0432002 W
            Gate Leakage = 0.025643 W
            Runtime Dynamic = 0.0832336 W

          LoadQ:
            Area = 0.0430063 mm^2
            Peak Dynamic = 0.0139597 W
            Subthreshold Leakage = 0.00238113 W
            Subthreshold Leakage with power gating = 0.00135725 W
            Gate Leakage = 0.000855022 W
            Runtime Dynamic = 0.0139597 W

          StoreQ:
            Area = 0.0515274 mm^2
            Peak Dynamic = 0.0181289 W
            Subthreshold Leakage = 0.00333321 W
            Subthreshold Leakage with power gating = 0.00189993 W
            Gate Leakage = 0.00112608 W
            Runtime Dynamic = 0.0362578 W

      Memory Management Unit:
        Area = 0.100456 mm^2
        Peak Dynamic = 0.102667 W
        Subthreshold Leakage = 0.0106657 W
        Subthreshold Leakage with power gating = 0.00500875 W
        Gate Leakage = 0.0062802 W
        Runtime Dynamic = 0.0144853 W

          Itlb:
            Area = 0.0319967 mm^2
            Peak Dynamic = 0.0178719 W
            Subthreshold Leakage = 0.00232604 W
            Subthreshold Leakage with power gating = 0.00132584 W
            Gate Leakage = 0.000775623 W
            Runtime Dynamic = 0.00266642 W

          Dtlb:
            Area = 0.0456762 mm^2
            Peak Dynamic = 0.0116363 W
            Subthreshold Leakage = 0.00373455 W
            Subthreshold Leakage with power gating = 0.00212869 W
            Gate Leakage = 0.00120491 W
            Runtime Dynamic = 0.0118188 W

      Execution Unit:
        Area = 4.30453 mm^2
        Peak Dynamic = 2.59191 W
        Subthreshold Leakage = 0.36545 W
        Subthreshold Leakage with power gating = 0.129924 W
        Gate Leakage = 0.137753 W
        Runtime Dynamic = 1.05261 W

          Register Files:
            Area = 0.293668 mm^2
            Peak Dynamic = 0.0312991 W
            Subthreshold Leakage = 0.00262543 W
            Subthreshold Leakage with power gating = 0.000992351 W
            Gate Leakage = 0.00090702 W
            Runtime Dynamic = 0.018048 W

              Integer RF:
                Area = 0.186234 mm^2
                Peak Dynamic = 0.0198511 W
                Subthreshold Leakage = 0.00159167 W
                Subthreshold Leakage with power gating = 0.000581031 W
                Gate Leakage = 0.000571424 W
                Runtime Dynamic = 0.0159135 W

              Floating Point RF:
                Area = 0.107434 mm^2
                Peak Dynamic = 0.011448 W
                Subthreshold Leakage = 0.00103377 W
                Subthreshold Leakage with power gating = 0.00041132 W
                Gate Leakage = 0.000335596 W
                Runtime Dynamic = 0.00213448 W

          Instruction Scheduler:
            Area = 1.11343 mm^2
            Peak Dynamic = 2.36434 W
            Subthreshold Leakage = 0.0299356 W
            Subthreshold Leakage with power gating = 0.0165819 W
            Gate Leakage = 0.0107484 W
            Runtime Dynamic = 0.229062 W

              Instruction Window:
                Area = 0.519531 mm^2
                Peak Dynamic = 1.01319 W
                Subthreshold Leakage = 0.0210861 W
                Subthreshold Leakage with power gating = 0.0119994 W
                Gate Leakage = 0.00784113 W
                Runtime Dynamic = 0.102472 W

              FP Instruction Window:
                Area = 0.167689 mm^2
                Peak Dynamic = 0.592068 W
                Subthreshold Leakage = 0.00447456 W
                Subthreshold Leakage with power gating = 0.00253081 W
                Gate Leakage = 0.0017016 W
                Runtime Dynamic = 0.0594782 W

              ROB:
                Area = 0.426209 mm^2
                Peak Dynamic = 0.75908 W
                Subthreshold Leakage = 0.00437495 W
                Subthreshold Leakage with power gating = 0.0020517 W
                Gate Leakage = 0.00120572 W
                Runtime Dynamic = 0.0671117 W

          Integer ALUs (Count: 6 ):
            Area = 0.329609 mm^2
            Peak Dynamic = 0.054575 W
            Subthreshold Leakage = 0.0927722 W
            Subthreshold Leakage with power gating = 0.0313106 W
            Gate Leakage = 0.0344197 W
            Runtime Dynamic = 0.149249 W

          Floating Point Units (FPUs) (Count: 2 ):
            Area = 2.35571 mm^2
            Peak Dynamic = 0.0719578 W
            Subthreshold Leakage = 0.16576 W
            Subthreshold Leakage with power gating = 0.055944 W
            Gate Leakage = 0.0614991 W
            Runtime Dynamic = 0.325322 W

          Complex ALUs (Mul/Div) (Count: 1 ):
            Area = 0.164805 mm^2
            Peak Dynamic = 0.0144356 W
            Subthreshold Leakage = 0.0463861 W
            Subthreshold Leakage with power gating = 0.0156553 W
            Gate Leakage = 0.0172098 W
            Runtime Dynamic = 0.20733 W

          Results Broadcast Bus:
            Area Overhead = 0.0245306 mm^2
            Peak Dynamic = 0.0496205 W
            Subthreshold Leakage = 0.0233657 W
            Subthreshold Leakage with power gating = 0.00788591 W
            Gate Leakage = 0.00866896 W
            Runtime Dynamic = 0.123594 W

*****************************************************************************************
L2
      Area = 4.99419 mm^2
      Peak Dynamic = 0.0437206 W
      Subthreshold Leakage = 0.224889 W
      Subthreshold Leakage with power gating = 0.103147 W
      Gate Leakage = 0.0302188 W
      Runtime Dynamic = 0.0206157 W

*****************************************************************************************
L2
      Area = 4.99419 mm^2
      Peak Dynamic = 0.0551371 W
      Subthreshold Leakage = 0.224889 W
      Subthreshold Leakage with power gating = 0.103147 W
      Gate Leakage = 0.0302188 W
      Runtime Dynamic = 0.0263227 W

*****************************************************************************************
L2
      Area = 4.99419 mm^2
      Peak Dynamic = 0.0525487 W
      Subthreshold Leakage = 0.224889 W
      Subthreshold Leakage with power gating = 0.103147 W
      Gate Leakage = 0.0302188 W
      Runtime Dynamic = 0.0246749 W

*****************************************************************************************
L2
      Area = 4.99419 mm^2
      Peak Dynamic = 0.0671319 W
      Subthreshold Leakage = 0.224889 W
      Subthreshold Leakage with power gating = 0.103147 W
      Gate Leakage = 0.0302188 W
      Runtime Dynamic = 0.0319075 W

*****************************************************************************************
L2
      Area = 4.99419 mm^2
      Peak Dynamic = 0.0647504 W
      Subthreshold Leakage = 0.224889 W
      Subthreshold Leakage with power gating = 0.103147 W
      Gate Leakage = 0.0302188 W
      Runtime Dynamic = 0.0317874 W

*****************************************************************************************
L2
      Area = 4.99419 mm^2
      Peak Dynamic = 0.0616192 W
      Subthreshold Leakage = 0.224889 W
      Subthreshold Leakage with power gating = 0.103147 W
      Gate Leakage = 0.0302188 W
      Runtime Dynamic = 0.0301681 W

*****************************************************************************************
L2
      Area = 4.99419 mm^2
      Peak Dynamic = 0.0671707 W
      Subthreshold Leakage = 0.224889 W
      Subthreshold Leakage with power gating = 0.103147 W
      Gate Leakage = 0.0302188 W
      Runtime Dynamic = 0.0317999 W

*****************************************************************************************
L2
      Area = 4.99419 mm^2
      Peak Dynamic = 0.0655583 W
      Subthreshold Leakage = 0.224889 W
      Subthreshold Leakage with power gating = 0.103147 W
      Gate Leakage = 0.0302188 W
      Runtime Dynamic = 0.0308899 W

*****************************************************************************************
NOC
      Area = 0.0870126 mm^2
      Peak Dynamic = 0.09245 W
      Subthreshold Leakage = 0.00149161 W
      Subthreshold Leakage with power gating = 0.000850216 W
      Gate Leakage = 0.00102695 W
      Runtime Dynamic = 0.138831 W

      Router: 
        Area = 0.0870126 mm^2
        Peak Dynamic = 0.09245 W
        Subthreshold Leakage = 0.00149161 W
        Subthreshold Leakage with power gating = 0.000850216 W
        Gate Leakage = 0.00102695 W
        Runtime Dynamic = 0.138831 W

            Virtual Channel Buffer:
              Area = 0.0686472 mm^2
              Peak Dynamic = 0.0698105 W
              Subthreshold Leakage = 0.000593759 W
              Subthreshold Leakage with power gating = 0.000338443 W
              Gate Leakage = 0.000325423 W
              Runtime Dynamic = 0.104834 W

            Crossbar:
              Area = 0.00429497 mm^2
              Peak Dynamic = 0.0225668 W
              Subthreshold Leakage = 0.000897736 W
              Subthreshold Leakage with power gating = 0.00051171 W
              Gate Leakage = 0.00070146 W
              Runtime Dynamic = 0.0338883 W

            Arbiter:
              Peak Dynamic = 7.26585e-05 W
              Subthreshold Leakage = 1.12342e-07 W
              Subthreshold Leakage with power gating = 0.00051171 W
              Gate Leakage = 6.39245e-08 W
              Runtime Dynamic = 0.00010911 W

*****************************************************************************************
