McPAT (version 1.0 of Aug, 2013) is computing the target processor...
 
Warning: icache array structure cannot satisfy latency constraint.
Warning: icache array structure cannot satisfy latency constraint.
Warning: icache array structure cannot satisfy latency constraint.
Warning: icache array structure cannot satisfy latency constraint.
Warning: icache array structure cannot satisfy latency constraint.
Warning: icache array structure cannot satisfy latency constraint.
Warning: icache array structure cannot satisfy latency constraint.
Warning: icache array structure cannot satisfy latency constraint.
Warning: icache array structure cannot satisfy latency constraint.
Warning: icache array structure cannot satisfy latency constraint.
Warning: icache array structure cannot satisfy latency constraint.
Warning: icache array structure cannot satisfy latency constraint.
Warning: icache array structure cannot satisfy latency constraint.
Warning: icache array structure cannot satisfy latency constraint.
Warning: icache array structure cannot satisfy latency constraint.
Warning: icache array structure cannot satisfy latency constraint.
Warning: icache array structure cannot satisfy latency constraint.
Warning: icache array structure cannot satisfy latency constraint.
Warning: icache array structure cannot satisfy latency constraint.
Warning: icache array structure cannot satisfy latency constraint.
Warning: icache array structure cannot satisfy latency constraint.
Warning: icache array structure cannot satisfy latency constraint.
Warning: icache array structure cannot satisfy latency constraint.
Warning: icache array structure cannot satisfy latency constraint.
Warning: icache array structure cannot satisfy latency constraint.
Warning: icache array structure cannot satisfy latency constraint.
Warning: icache array structure cannot satisfy latency constraint.
Warning: icache array structure cannot satisfy latency constraint.
Warning: icache array structure cannot satisfy latency constraint.
Warning: icache array structure cannot satisfy latency constraint.
Warning: icache array structure cannot satisfy latency constraint.
Warning: icache array structure cannot satisfy latency constraint.

McPAT (version 1.0 of Aug, 2013) results  (current print level is 5)
*****************************************************************************************
  Technology 32 nm
  Using Long Channel Devices When Appropriate
  Interconnect metal projection= aggressive interconnect technology projection
  Core clock Rate(MHz) 2000

*****************************************************************************************
Processor: 
  Area = 445.969 mm^2
  Peak Power = 301.436 W
  Total Leakage = 52.6516 W
  Peak Dynamic = 248.785 W
  Subthreshold Leakage = 38.5969 W
  Subthreshold Leakage with power gating = 14.9826 W
  Gate Leakage = 14.0547 W
  Runtime Dynamic = 44.2966 W

  Total Cores: 32 cores 
  Device Type= ITRS high performance device type
    Area = 406.281 mm^2
    Peak Dynamic = 248.217 W
    Subthreshold Leakage = 36.6427 W
    Subthreshold Leakage with power gating = 13.807 W
    Gate Leakage = 13.7959 W
    Runtime Dynamic = 43.9298 W

  Total L2s: 
  Device Type= ITRS high performance device type
    Area = 39.6008 mm^2
    Peak Dynamic = 0.477599 W
    Subthreshold Leakage = 1.95275 W
    Subthreshold Leakage with power gating = 0.948184 W
    Gate Leakage = 0.257734 W
    Runtime Dynamic = 0.229956 W

  Total NoCs (Network/Bus): 
  Device Type= ITRS high performance device type
    Area = 0.0870126 mm^2
    Peak Dynamic = 0.0902291 W
    Subthreshold Leakage = 0.00149161 W
    Subthreshold Leakage with power gating = 0.000850216 W
    Gate Leakage = 0.00102695 W
    Runtime Dynamic = 0.136874 W

*****************************************************************************************
Core:
      Area = 12.6963 mm^2
      Peak Dynamic = 6.30846 W
      Subthreshold Leakage = 1.14508 W
      Subthreshold Leakage with power gating = 0.431469 W
      Gate Leakage = 0.431123 W
      Runtime Dynamic = 0.662833 W

      Instruction Fetch Unit:
        Area = 3.04058 mm^2
        Peak Dynamic = 1.06215 W
        Subthreshold Leakage = 0.226888 W
        Subthreshold Leakage with power gating = 0.0933342 W
        Gate Leakage = 0.082348 W
        Runtime Dynamic = 0.0118526 W

          Instruction Cache:
            Area = 1.60147 mm^2
            Peak Dynamic = 0.0903195 W
            Subthreshold Leakage = 0.093335 W
            Subthreshold Leakage with power gating = 0.044301 W
            Gate Leakage = 0.042566 W
            Runtime Dynamic = 0.00575306 W

          Branch Target Buffer:
            Area = 0.397072 mm^2
            Peak Dynamic = 0.0840866 W
            Subthreshold Leakage = 0.02173 W
            Subthreshold Leakage with power gating = 0.0105914 W
            Gate Leakage = 0.00551055 W
            Runtime Dynamic = 0.00049507 W

          Branch Predictor:
            Area = 0.0686002 mm^2
            Peak Dynamic = 0.0275933 W
            Subthreshold Leakage = 0.00468696 W
            Subthreshold Leakage with power gating = 0.00225328 W
            Gate Leakage = 0.00101062 W
            Runtime Dynamic = 0.000162682 W

              Global Predictor:
                Area = 0.0218979 mm^2
                Peak Dynamic = 0.0077921 W
                Subthreshold Leakage = 0.00178236 W
                Subthreshold Leakage with power gating = 0.000855551 W
                Gate Leakage = 0.000370196 W
                Runtime Dynamic = 4.97278e-05 W

              Local Predictor:
              L1_Local Predictor:
                Area = 0.0128884 mm^2
                Peak Dynamic = 0.00653673 W
                Subthreshold Leakage = 0.000903617 W
                Subthreshold Leakage with power gating = 0.000433877 W
                Gate Leakage = 0.000207902 W
                Runtime Dynamic = 4.29126e-05 W

              L2_Local Predictor:
                Area = 0.00661857 mm^2
                Peak Dynamic = 0.00333484 W
                Subthreshold Leakage = 0.000457985 W
                Subthreshold Leakage with power gating = 0.00021904 W
                Gate Leakage = 0.000109414 W
                Runtime Dynamic = 2.18943e-05 W

              Chooser:
                Area = 0.0218979 mm^2
                Peak Dynamic = 0.0077921 W
                Subthreshold Leakage = 0.00178236 W
                Subthreshold Leakage with power gating = 0.000855551 W
                Gate Leakage = 0.000370196 W
                Runtime Dynamic = 4.97278e-05 W

              RAS:
                Area = 0.00529751 mm^2
                Peak Dynamic = 0.00547237 W
                Subthreshold Leakage = 0.000218626 W
                Subthreshold Leakage with power gating = 0.000108298 W
                Gate Leakage = 6.23254e-05 W
                Runtime Dynamic = 2.03139e-05 W

          Instruction Buffer:
            Area = 0.0111146 mm^2
            Peak Dynamic = 0.290305 W
            Subthreshold Leakage = 0.000365712 W
            Subthreshold Leakage with power gating = 0.000153616 W
            Gate Leakage = 9.42121e-05 W
            Runtime Dynamic = 0.00138644 W

          Instruction Decoder:
            Area = 0.939544 mm^2
            Peak Dynamic = 0.566091 W
            Subthreshold Leakage = 0.102165 W
            Subthreshold Leakage with power gating = 0.0344807 W
            Gate Leakage = 0.028867 W
            Runtime Dynamic = 0.0040553 W

      Renaming Unit:
        Area = 0.187354 mm^2
        Peak Dynamic = 2.14888 W
        Subthreshold Leakage = 0.0176949 W
        Subthreshold Leakage with power gating = 0.00901078 W
        Gate Leakage = 0.0121236 W
        Runtime Dynamic = 0.00287478 W

          Int Front End RAT:
            Area = 0.0583904 mm^2
            Peak Dynamic = 0.386173 W
            Subthreshold Leakage = 0.00151853 W
            Subthreshold Leakage with power gating = 0.000865565 W
            Gate Leakage = 0.000537576 W
            Runtime Dynamic = 0.0026047 W

          FP Front End RAT:
            Area = 0.0852001 mm^2
            Peak Dynamic = 1.61287 W
            Subthreshold Leakage = 0.0114141 W
            Subthreshold Leakage with power gating = 0.00650604 W
            Gate Leakage = 0.00723124 W
            Runtime Dynamic = 1.50324e-06 W

          Free List:
            Area = 0.0209802 mm^2
            Peak Dynamic = 0.0187401 W
            Subthreshold Leakage = 0.000157165 W
            Subthreshold Leakage with power gating = 8.49701e-05 W
            Gate Leakage = 5.50825e-05 W
            Runtime Dynamic = 0.000268513 W

      Load Store Unit:
        Area = 1.98568 mm^2
        Peak Dynamic = 0.652146 W
        Subthreshold Leakage = 0.0912613 W
        Subthreshold Leakage with power gating = 0.0480116 W
        Gate Leakage = 0.0319237 W
        Runtime Dynamic = 0.0160156 W

          Data Cache:
            Area = 1.5316 mm^2
            Peak Dynamic = 0.64656 W
            Subthreshold Leakage = 0.0809419 W
            Subthreshold Leakage with power gating = 0.0432002 W
            Gate Leakage = 0.025643 W
            Runtime Dynamic = 0.0100867 W

          LoadQ:
            Area = 0.0430063 mm^2
            Peak Dynamic = 0.00164807 W
            Subthreshold Leakage = 0.00238113 W
            Subthreshold Leakage with power gating = 0.00135725 W
            Gate Leakage = 0.000855022 W
            Runtime Dynamic = 0.00164813 W

          StoreQ:
            Area = 0.0515274 mm^2
            Peak Dynamic = 0.00214029 W
            Subthreshold Leakage = 0.00333321 W
            Subthreshold Leakage with power gating = 0.00189993 W
            Gate Leakage = 0.00112608 W
            Runtime Dynamic = 0.00428072 W

      Memory Management Unit:
        Area = 0.100456 mm^2
        Peak Dynamic = 0.0694746 W
        Subthreshold Leakage = 0.0106657 W
        Subthreshold Leakage with power gating = 0.00500875 W
        Gate Leakage = 0.0062802 W
        Runtime Dynamic = 0.0016588 W

          Itlb:
            Area = 0.0319967 mm^2
            Peak Dynamic = 0.00165633 W
            Subthreshold Leakage = 0.00232604 W
            Subthreshold Leakage with power gating = 0.00132584 W
            Gate Leakage = 0.000775623 W
            Runtime Dynamic = 0.000265137 W

          Dtlb:
            Area = 0.0456762 mm^2
            Peak Dynamic = 0.00137378 W
            Subthreshold Leakage = 0.00373455 W
            Subthreshold Leakage with power gating = 0.00212869 W
            Gate Leakage = 0.00120491 W
            Runtime Dynamic = 0.0013936 W

      Execution Unit:
        Area = 4.30453 mm^2
        Peak Dynamic = 2.37581 W
        Subthreshold Leakage = 0.36545 W
        Subthreshold Leakage with power gating = 0.129924 W
        Gate Leakage = 0.137753 W
        Runtime Dynamic = 0.630431 W

          Register Files:
            Area = 0.293668 mm^2
            Peak Dynamic = 0.00144254 W
            Subthreshold Leakage = 0.00262543 W
            Subthreshold Leakage with power gating = 0.000992351 W
            Gate Leakage = 0.00090702 W
            Runtime Dynamic = 0.00167262 W

              Integer RF:
                Area = 0.186234 mm^2
                Peak Dynamic = 0.00144208 W
                Subthreshold Leakage = 0.00159167 W
                Subthreshold Leakage with power gating = 0.000581031 W
                Gate Leakage = 0.000571424 W
                Runtime Dynamic = 0.0014748 W

              Floating Point RF:
                Area = 0.107434 mm^2
                Peak Dynamic = 4.63914e-07 W
                Subthreshold Leakage = 0.00103377 W
                Subthreshold Leakage with power gating = 0.00041132 W
                Gate Leakage = 0.000335596 W
                Runtime Dynamic = 0.000197814 W

          Instruction Scheduler:
            Area = 1.11343 mm^2
            Peak Dynamic = 2.36434 W
            Subthreshold Leakage = 0.0299356 W
            Subthreshold Leakage with power gating = 0.0165819 W
            Gate Leakage = 0.0107484 W
            Runtime Dynamic = 0.021096 W

              Instruction Window:
                Area = 0.519531 mm^2
                Peak Dynamic = 1.01319 W
                Subthreshold Leakage = 0.0210861 W
                Subthreshold Leakage with power gating = 0.0119994 W
                Gate Leakage = 0.00784113 W
                Runtime Dynamic = 0.00949681 W

              FP Instruction Window:
                Area = 0.167689 mm^2
                Peak Dynamic = 0.592068 W
                Subthreshold Leakage = 0.00447456 W
                Subthreshold Leakage with power gating = 0.00253081 W
                Gate Leakage = 0.0017016 W
                Runtime Dynamic = 0.00551221 W

              ROB:
                Area = 0.426209 mm^2
                Peak Dynamic = 0.75908 W
                Subthreshold Leakage = 0.00437495 W
                Subthreshold Leakage with power gating = 0.0020517 W
                Gate Leakage = 0.00120572 W
                Runtime Dynamic = 0.00608693 W

          Integer ALUs (Count: 6 ):
            Area = 0.329609 mm^2
            Peak Dynamic = 0.00601754 W
            Subthreshold Leakage = 0.0927722 W
            Subthreshold Leakage with power gating = 0.0313106 W
            Gate Leakage = 0.0344197 W
            Runtime Dynamic = 0.103956 W

          Floating Point Units (FPUs) (Count: 2 ):
            Area = 2.35571 mm^2
            Peak Dynamic = 2.91599e-06 W
            Subthreshold Leakage = 0.16576 W
            Subthreshold Leakage with power gating = 0.055944 W
            Gate Leakage = 0.0614991 W
            Runtime Dynamic = 0.296665 W

          Complex ALUs (Mul/Div) (Count: 1 ):
            Area = 0.164805 mm^2
            Peak Dynamic = 5.84886e-07 W
            Subthreshold Leakage = 0.0463861 W
            Subthreshold Leakage with power gating = 0.0156553 W
            Gate Leakage = 0.0172098 W
            Runtime Dynamic = 0.197776 W

          Results Broadcast Bus:
            Area Overhead = 0.0245306 mm^2
            Peak Dynamic = 0.00337938 W
            Subthreshold Leakage = 0.0233657 W
            Subthreshold Leakage with power gating = 0.00788591 W
            Gate Leakage = 0.00866896 W
            Runtime Dynamic = 0.00926524 W

*****************************************************************************************
Core:
      Area = 12.6963 mm^2
      Peak Dynamic = 7.80753 W
      Subthreshold Leakage = 1.14508 W
      Subthreshold Leakage with power gating = 0.431469 W
      Gate Leakage = 0.431123 W
      Runtime Dynamic = 1.39792 W

      Instruction Fetch Unit:
        Area = 3.04058 mm^2
        Peak Dynamic = 1.99398 W
        Subthreshold Leakage = 0.226888 W
        Subthreshold Leakage with power gating = 0.0933342 W
        Gate Leakage = 0.082348 W
        Runtime Dynamic = 0.120248 W

          Instruction Cache:
            Area = 1.60147 mm^2
            Peak Dynamic = 0.984944 W
            Subthreshold Leakage = 0.093335 W
            Subthreshold Leakage with power gating = 0.044301 W
            Gate Leakage = 0.042566 W
            Runtime Dynamic = 0.055846 W

          Branch Target Buffer:
            Area = 0.397072 mm^2
            Peak Dynamic = 0.0840866 W
            Subthreshold Leakage = 0.02173 W
            Subthreshold Leakage with power gating = 0.0105914 W
            Gate Leakage = 0.00551055 W
            Runtime Dynamic = 0.00375163 W

          Branch Predictor:
            Area = 0.0686002 mm^2
            Peak Dynamic = 0.0275933 W
            Subthreshold Leakage = 0.00468696 W
            Subthreshold Leakage with power gating = 0.00225328 W
            Gate Leakage = 0.00101062 W
            Runtime Dynamic = 0.00130747 W

              Global Predictor:
                Area = 0.0218979 mm^2
                Peak Dynamic = 0.0077921 W
                Subthreshold Leakage = 0.00178236 W
                Subthreshold Leakage with power gating = 0.000855551 W
                Gate Leakage = 0.000370196 W
                Runtime Dynamic = 0.000379074 W

              Local Predictor:
              L1_Local Predictor:
                Area = 0.0128884 mm^2
                Peak Dynamic = 0.00653673 W
                Subthreshold Leakage = 0.000903617 W
                Subthreshold Leakage with power gating = 0.000433877 W
                Gate Leakage = 0.000207902 W
                Runtime Dynamic = 0.000327763 W

              L2_Local Predictor:
                Area = 0.00661857 mm^2
                Peak Dynamic = 0.00333484 W
                Subthreshold Leakage = 0.000457985 W
                Subthreshold Leakage with power gating = 0.00021904 W
                Gate Leakage = 0.000109414 W
                Runtime Dynamic = 0.000167228 W

              Chooser:
                Area = 0.0218979 mm^2
                Peak Dynamic = 0.0077921 W
                Subthreshold Leakage = 0.00178236 W
                Subthreshold Leakage with power gating = 0.000855551 W
                Gate Leakage = 0.000370196 W
                Runtime Dynamic = 0.000379074 W

              RAS:
                Area = 0.00529751 mm^2
                Peak Dynamic = 0.00547237 W
                Subthreshold Leakage = 0.000218626 W
                Subthreshold Leakage with power gating = 0.000108298 W
                Gate Leakage = 6.23254e-05 W
                Runtime Dynamic = 0.000221556 W

          Instruction Buffer:
            Area = 0.0111146 mm^2
            Peak Dynamic = 0.290305 W
            Subthreshold Leakage = 0.000365712 W
            Subthreshold Leakage with power gating = 0.000153616 W
            Gate Leakage = 9.42121e-05 W
            Runtime Dynamic = 0.0151194 W

          Instruction Decoder:
            Area = 0.939544 mm^2
            Peak Dynamic = 0.566091 W
            Subthreshold Leakage = 0.102165 W
            Subthreshold Leakage with power gating = 0.0344807 W
            Gate Leakage = 0.028867 W
            Runtime Dynamic = 0.0442238 W

      Renaming Unit:
        Area = 0.187354 mm^2
        Peak Dynamic = 2.14888 W
        Subthreshold Leakage = 0.0176949 W
        Subthreshold Leakage with power gating = 0.00901078 W
        Gate Leakage = 0.0121236 W
        Runtime Dynamic = 0.0710657 W

          Int Front End RAT:
            Area = 0.0583904 mm^2
            Peak Dynamic = 0.386173 W
            Subthreshold Leakage = 0.00151853 W
            Subthreshold Leakage with power gating = 0.000865565 W
            Gate Leakage = 0.000537576 W
            Runtime Dynamic = 0.027578 W

          FP Front End RAT:
            Area = 0.0852001 mm^2
            Peak Dynamic = 1.61287 W
            Subthreshold Leakage = 0.0114141 W
            Subthreshold Leakage with power gating = 0.00650604 W
            Gate Leakage = 0.00723124 W
            Runtime Dynamic = 0.0400937 W

          Free List:
            Area = 0.0209802 mm^2
            Peak Dynamic = 0.0187401 W
            Subthreshold Leakage = 0.000157165 W
            Subthreshold Leakage with power gating = 8.49701e-05 W
            Gate Leakage = 5.50825e-05 W
            Runtime Dynamic = 0.00339385 W

      Load Store Unit:
        Area = 1.98568 mm^2
        Peak Dynamic = 0.967611 W
        Subthreshold Leakage = 0.0912613 W
        Subthreshold Leakage with power gating = 0.0480116 W
        Gate Leakage = 0.0319237 W
        Runtime Dynamic = 0.134657 W

          Data Cache:
            Area = 1.5316 mm^2
            Peak Dynamic = 0.919776 W
            Subthreshold Leakage = 0.0809419 W
            Subthreshold Leakage with power gating = 0.0432002 W
            Gate Leakage = 0.025643 W
            Runtime Dynamic = 0.0838874 W

          LoadQ:
            Area = 0.0430063 mm^2
            Peak Dynamic = 0.0141133 W
            Subthreshold Leakage = 0.00238113 W
            Subthreshold Leakage with power gating = 0.00135725 W
            Gate Leakage = 0.000855022 W
            Runtime Dynamic = 0.0141133 W

          StoreQ:
            Area = 0.0515274 mm^2
            Peak Dynamic = 0.0183284 W
            Subthreshold Leakage = 0.00333321 W
            Subthreshold Leakage with power gating = 0.00189993 W
            Gate Leakage = 0.00112608 W
            Runtime Dynamic = 0.0366568 W

      Memory Management Unit:
        Area = 0.100456 mm^2
        Peak Dynamic = 0.103069 W
        Subthreshold Leakage = 0.0106657 W
        Subthreshold Leakage with power gating = 0.00500875 W
        Gate Leakage = 0.0062802 W
        Runtime Dynamic = 0.0146307 W

          Itlb:
            Area = 0.0319967 mm^2
            Peak Dynamic = 0.0180624 W
            Subthreshold Leakage = 0.00232604 W
            Subthreshold Leakage with power gating = 0.00132584 W
            Gate Leakage = 0.000775623 W
            Runtime Dynamic = 0.00269313 W

          Dtlb:
            Area = 0.0456762 mm^2
            Peak Dynamic = 0.0117644 W
            Subthreshold Leakage = 0.00373455 W
            Subthreshold Leakage with power gating = 0.00212869 W
            Gate Leakage = 0.00120491 W
            Runtime Dynamic = 0.0119375 W

      Execution Unit:
        Area = 4.30453 mm^2
        Peak Dynamic = 2.59399 W
        Subthreshold Leakage = 0.36545 W
        Subthreshold Leakage with power gating = 0.129924 W
        Gate Leakage = 0.137753 W
        Runtime Dynamic = 1.05731 W

          Register Files:
            Area = 0.293668 mm^2
            Peak Dynamic = 0.0315809 W
            Subthreshold Leakage = 0.00262543 W
            Subthreshold Leakage with power gating = 0.000992351 W
            Gate Leakage = 0.00090702 W
            Runtime Dynamic = 0.0182404 W

              Integer RF:
                Area = 0.186234 mm^2
                Peak Dynamic = 0.0200487 W
                Subthreshold Leakage = 0.00159167 W
                Subthreshold Leakage with power gating = 0.000581031 W
                Gate Leakage = 0.000571424 W
                Runtime Dynamic = 0.0160832 W

              Floating Point RF:
                Area = 0.107434 mm^2
                Peak Dynamic = 0.0115322 W
                Subthreshold Leakage = 0.00103377 W
                Subthreshold Leakage with power gating = 0.00041132 W
                Gate Leakage = 0.000335596 W
                Runtime Dynamic = 0.00215723 W

          Instruction Scheduler:
            Area = 1.11343 mm^2
            Peak Dynamic = 2.36434 W
            Subthreshold Leakage = 0.0299356 W
            Subthreshold Leakage with power gating = 0.0165819 W
            Gate Leakage = 0.0107484 W
            Runtime Dynamic = 0.231498 W

              Instruction Window:
                Area = 0.519531 mm^2
                Peak Dynamic = 1.01319 W
                Subthreshold Leakage = 0.0210861 W
                Subthreshold Leakage with power gating = 0.0119994 W
                Gate Leakage = 0.00784113 W
                Runtime Dynamic = 0.103565 W

              FP Instruction Window:
                Area = 0.167689 mm^2
                Peak Dynamic = 0.592068 W
                Subthreshold Leakage = 0.00447456 W
                Subthreshold Leakage with power gating = 0.00253081 W
                Gate Leakage = 0.0017016 W
                Runtime Dynamic = 0.0601123 W

              ROB:
                Area = 0.426209 mm^2
                Peak Dynamic = 0.75908 W
                Subthreshold Leakage = 0.00437495 W
                Subthreshold Leakage with power gating = 0.0020517 W
                Gate Leakage = 0.00120572 W
                Runtime Dynamic = 0.067821 W

          Integer ALUs (Count: 6 ):
            Area = 0.329609 mm^2
            Peak Dynamic = 0.0551912 W
            Subthreshold Leakage = 0.0927722 W
            Subthreshold Leakage with power gating = 0.0313106 W
            Gate Leakage = 0.0344197 W
            Runtime Dynamic = 0.149803 W

          Floating Point Units (FPUs) (Count: 2 ):
            Area = 2.35571 mm^2
            Peak Dynamic = 0.0724871 W
            Subthreshold Leakage = 0.16576 W
            Subthreshold Leakage with power gating = 0.055944 W
            Gate Leakage = 0.0614991 W
            Runtime Dynamic = 0.325533 W

          Complex ALUs (Mul/Div) (Count: 1 ):
            Area = 0.164805 mm^2
            Peak Dynamic = 0.014542 W
            Subthreshold Leakage = 0.0463861 W
            Subthreshold Leakage with power gating = 0.0156553 W
            Gate Leakage = 0.0172098 W
            Runtime Dynamic = 0.2074 W

          Results Broadcast Bus:
            Area Overhead = 0.0245306 mm^2
            Peak Dynamic = 0.0501064 W
            Subthreshold Leakage = 0.0233657 W
            Subthreshold Leakage with power gating = 0.00788591 W
            Gate Leakage = 0.00866896 W
            Runtime Dynamic = 0.124839 W

*****************************************************************************************
Core:
      Area = 12.6963 mm^2
      Peak Dynamic = 7.80489 W
      Subthreshold Leakage = 1.14508 W
      Subthreshold Leakage with power gating = 0.431469 W
      Gate Leakage = 0.431123 W
      Runtime Dynamic = 1.39535 W

      Instruction Fetch Unit:
        Area = 3.04058 mm^2
        Peak Dynamic = 1.99226 W
        Subthreshold Leakage = 0.226888 W
        Subthreshold Leakage with power gating = 0.0933342 W
        Gate Leakage = 0.082348 W
        Runtime Dynamic = 0.120059 W

          Instruction Cache:
            Area = 1.60147 mm^2
            Peak Dynamic = 0.983292 W
            Subthreshold Leakage = 0.093335 W
            Subthreshold Leakage with power gating = 0.044301 W
            Gate Leakage = 0.042566 W
            Runtime Dynamic = 0.0557666 W

          Branch Target Buffer:
            Area = 0.397072 mm^2
            Peak Dynamic = 0.0840866 W
            Subthreshold Leakage = 0.02173 W
            Subthreshold Leakage with power gating = 0.0105914 W
            Gate Leakage = 0.00551055 W
            Runtime Dynamic = 0.00374379 W

          Branch Predictor:
            Area = 0.0686002 mm^2
            Peak Dynamic = 0.0275933 W
            Subthreshold Leakage = 0.00468696 W
            Subthreshold Leakage with power gating = 0.00225328 W
            Gate Leakage = 0.00101062 W
            Runtime Dynamic = 0.0013048 W

              Global Predictor:
                Area = 0.0218979 mm^2
                Peak Dynamic = 0.0077921 W
                Subthreshold Leakage = 0.00178236 W
                Subthreshold Leakage with power gating = 0.000855551 W
                Gate Leakage = 0.000370196 W
                Runtime Dynamic = 0.000378273 W

              Local Predictor:
              L1_Local Predictor:
                Area = 0.0128884 mm^2
                Peak Dynamic = 0.00653673 W
                Subthreshold Leakage = 0.000903617 W
                Subthreshold Leakage with power gating = 0.000433877 W
                Gate Leakage = 0.000207902 W
                Runtime Dynamic = 0.000327069 W

              L2_Local Predictor:
                Area = 0.00661857 mm^2
                Peak Dynamic = 0.00333484 W
                Subthreshold Leakage = 0.000457985 W
                Subthreshold Leakage with power gating = 0.00021904 W
                Gate Leakage = 0.000109414 W
                Runtime Dynamic = 0.000166874 W

              Chooser:
                Area = 0.0218979 mm^2
                Peak Dynamic = 0.0077921 W
                Subthreshold Leakage = 0.00178236 W
                Subthreshold Leakage with power gating = 0.000855551 W
                Gate Leakage = 0.000370196 W
                Runtime Dynamic = 0.000378273 W

              RAS:
                Area = 0.00529751 mm^2
                Peak Dynamic = 0.00547237 W
                Subthreshold Leakage = 0.000218626 W
                Subthreshold Leakage with power gating = 0.000108298 W
                Gate Leakage = 6.23254e-05 W
                Runtime Dynamic = 0.000221186 W

          Instruction Buffer:
            Area = 0.0111146 mm^2
            Peak Dynamic = 0.290305 W
            Subthreshold Leakage = 0.000365712 W
            Subthreshold Leakage with power gating = 0.000153616 W
            Gate Leakage = 9.42121e-05 W
            Runtime Dynamic = 0.015094 W

          Instruction Decoder:
            Area = 0.939544 mm^2
            Peak Dynamic = 0.566091 W
            Subthreshold Leakage = 0.102165 W
            Subthreshold Leakage with power gating = 0.0344807 W
            Gate Leakage = 0.028867 W
            Runtime Dynamic = 0.0441498 W

      Renaming Unit:
        Area = 0.187354 mm^2
        Peak Dynamic = 2.14888 W
        Subthreshold Leakage = 0.0176949 W
        Subthreshold Leakage with power gating = 0.00901078 W
        Gate Leakage = 0.0121236 W
        Runtime Dynamic = 0.0710128 W

          Int Front End RAT:
            Area = 0.0583904 mm^2
            Peak Dynamic = 0.386173 W
            Subthreshold Leakage = 0.00151853 W
            Subthreshold Leakage with power gating = 0.000865565 W
            Gate Leakage = 0.000537576 W
            Runtime Dynamic = 0.0275301 W

          FP Front End RAT:
            Area = 0.0852001 mm^2
            Peak Dynamic = 1.61287 W
            Subthreshold Leakage = 0.0114141 W
            Subthreshold Leakage with power gating = 0.00650604 W
            Gate Leakage = 0.00723124 W
            Runtime Dynamic = 0.0400937 W

          Free List:
            Area = 0.0209802 mm^2
            Peak Dynamic = 0.0187401 W
            Subthreshold Leakage = 0.000157165 W
            Subthreshold Leakage with power gating = 8.49701e-05 W
            Gate Leakage = 5.50825e-05 W
            Runtime Dynamic = 0.00338895 W

      Load Store Unit:
        Area = 1.98568 mm^2
        Peak Dynamic = 0.966966 W
        Subthreshold Leakage = 0.0912613 W
        Subthreshold Leakage with power gating = 0.0480116 W
        Gate Leakage = 0.0319237 W
        Runtime Dynamic = 0.133067 W

          Data Cache:
            Area = 1.5316 mm^2
            Peak Dynamic = 0.919217 W
            Subthreshold Leakage = 0.0809419 W
            Subthreshold Leakage with power gating = 0.0432002 W
            Gate Leakage = 0.025643 W
            Runtime Dynamic = 0.0823886 W

          LoadQ:
            Area = 0.0430063 mm^2
            Peak Dynamic = 0.0140878 W
            Subthreshold Leakage = 0.00238113 W
            Subthreshold Leakage with power gating = 0.00135725 W
            Gate Leakage = 0.000855022 W
            Runtime Dynamic = 0.0140878 W

          StoreQ:
            Area = 0.0515274 mm^2
            Peak Dynamic = 0.0182953 W
            Subthreshold Leakage = 0.00333321 W
            Subthreshold Leakage with power gating = 0.00189993 W
            Gate Leakage = 0.00112608 W
            Runtime Dynamic = 0.0365906 W

      Memory Management Unit:
        Area = 0.100456 mm^2
        Peak Dynamic = 0.103004 W
        Subthreshold Leakage = 0.0106657 W
        Subthreshold Leakage with power gating = 0.00500875 W
        Gate Leakage = 0.0062802 W
        Runtime Dynamic = 0.0145746 W

          Itlb:
            Area = 0.0319967 mm^2
            Peak Dynamic = 0.0180321 W
            Subthreshold Leakage = 0.00232604 W
            Subthreshold Leakage with power gating = 0.00132584 W
            Gate Leakage = 0.000775623 W
            Runtime Dynamic = 0.00268971 W

          Dtlb:
            Area = 0.0456762 mm^2
            Peak Dynamic = 0.0117431 W
            Subthreshold Leakage = 0.00373455 W
            Subthreshold Leakage with power gating = 0.00212869 W
            Gate Leakage = 0.00120491 W
            Runtime Dynamic = 0.0118848 W

      Execution Unit:
        Area = 4.30453 mm^2
        Peak Dynamic = 2.59378 W
        Subthreshold Leakage = 0.36545 W
        Subthreshold Leakage with power gating = 0.129924 W
        Gate Leakage = 0.137753 W
        Runtime Dynamic = 1.05663 W

          Register Files:
            Area = 0.293668 mm^2
            Peak Dynamic = 0.0315547 W
            Subthreshold Leakage = 0.00262543 W
            Subthreshold Leakage with power gating = 0.000992351 W
            Gate Leakage = 0.00090702 W
            Runtime Dynamic = 0.0182099 W

              Integer RF:
                Area = 0.186234 mm^2
                Peak Dynamic = 0.0200224 W
                Subthreshold Leakage = 0.00159167 W
                Subthreshold Leakage with power gating = 0.000581031 W
                Gate Leakage = 0.000571424 W
                Runtime Dynamic = 0.0160562 W

              Floating Point RF:
                Area = 0.107434 mm^2
                Peak Dynamic = 0.0115322 W
                Subthreshold Leakage = 0.00103377 W
                Subthreshold Leakage with power gating = 0.00041132 W
                Gate Leakage = 0.000335596 W
                Runtime Dynamic = 0.00215362 W

          Instruction Scheduler:
            Area = 1.11343 mm^2
            Peak Dynamic = 2.36434 W
            Subthreshold Leakage = 0.0299356 W
            Subthreshold Leakage with power gating = 0.0165819 W
            Gate Leakage = 0.0107484 W
            Runtime Dynamic = 0.231114 W

              Instruction Window:
                Area = 0.519531 mm^2
                Peak Dynamic = 1.01319 W
                Subthreshold Leakage = 0.0210861 W
                Subthreshold Leakage with power gating = 0.0119994 W
                Gate Leakage = 0.00784113 W
                Runtime Dynamic = 0.103391 W

              FP Instruction Window:
                Area = 0.167689 mm^2
                Peak Dynamic = 0.592068 W
                Subthreshold Leakage = 0.00447456 W
                Subthreshold Leakage with power gating = 0.00253081 W
                Gate Leakage = 0.0017016 W
                Runtime Dynamic = 0.0600116 W

              ROB:
                Area = 0.426209 mm^2
                Peak Dynamic = 0.75908 W
                Subthreshold Leakage = 0.00437495 W
                Subthreshold Leakage with power gating = 0.0020517 W
                Gate Leakage = 0.00120572 W
                Runtime Dynamic = 0.0677113 W

          Integer ALUs (Count: 6 ):
            Area = 0.329609 mm^2
            Peak Dynamic = 0.0550816 W
            Subthreshold Leakage = 0.0927722 W
            Subthreshold Leakage with power gating = 0.0313106 W
            Gate Leakage = 0.0344197 W
            Runtime Dynamic = 0.149709 W

          Floating Point Units (FPUs) (Count: 2 ):
            Area = 2.35571 mm^2
            Peak Dynamic = 0.0724871 W
            Subthreshold Leakage = 0.16576 W
            Subthreshold Leakage with power gating = 0.055944 W
            Gate Leakage = 0.0614991 W
            Runtime Dynamic = 0.325533 W

          Complex ALUs (Mul/Div) (Count: 1 ):
            Area = 0.164805 mm^2
            Peak Dynamic = 0.014542 W
            Subthreshold Leakage = 0.0463861 W
            Subthreshold Leakage with power gating = 0.0156553 W
            Gate Leakage = 0.0172098 W
            Runtime Dynamic = 0.2074 W

          Results Broadcast Bus:
            Area Overhead = 0.0245306 mm^2
            Peak Dynamic = 0.0500448 W
            Subthreshold Leakage = 0.0233657 W
            Subthreshold Leakage with power gating = 0.00788591 W
            Gate Leakage = 0.00866896 W
            Runtime Dynamic = 0.124668 W

*****************************************************************************************
Core:
      Area = 12.6963 mm^2
      Peak Dynamic = 7.80485 W
      Subthreshold Leakage = 1.14508 W
      Subthreshold Leakage with power gating = 0.431469 W
      Gate Leakage = 0.431123 W
      Runtime Dynamic = 1.39521 W

      Instruction Fetch Unit:
        Area = 3.04058 mm^2
        Peak Dynamic = 1.99223 W
        Subthreshold Leakage = 0.226888 W
        Subthreshold Leakage with power gating = 0.0933342 W
        Gate Leakage = 0.082348 W
        Runtime Dynamic = 0.120045 W

          Instruction Cache:
            Area = 1.60147 mm^2
            Peak Dynamic = 0.983258 W
            Subthreshold Leakage = 0.093335 W
            Subthreshold Leakage with power gating = 0.044301 W
            Gate Leakage = 0.042566 W
            Runtime Dynamic = 0.0557548 W

          Branch Target Buffer:
            Area = 0.397072 mm^2
            Peak Dynamic = 0.0840866 W
            Subthreshold Leakage = 0.02173 W
            Subthreshold Leakage with power gating = 0.0105914 W
            Gate Leakage = 0.00551055 W
            Runtime Dynamic = 0.00374344 W

          Branch Predictor:
            Area = 0.0686002 mm^2
            Peak Dynamic = 0.0275933 W
            Subthreshold Leakage = 0.00468696 W
            Subthreshold Leakage with power gating = 0.00225328 W
            Gate Leakage = 0.00101062 W
            Runtime Dynamic = 0.00130465 W

              Global Predictor:
                Area = 0.0218979 mm^2
                Peak Dynamic = 0.0077921 W
                Subthreshold Leakage = 0.00178236 W
                Subthreshold Leakage with power gating = 0.000855551 W
                Gate Leakage = 0.000370196 W
                Runtime Dynamic = 0.000378226 W

              Local Predictor:
              L1_Local Predictor:
                Area = 0.0128884 mm^2
                Peak Dynamic = 0.00653673 W
                Subthreshold Leakage = 0.000903617 W
                Subthreshold Leakage with power gating = 0.000433877 W
                Gate Leakage = 0.000207902 W
                Runtime Dynamic = 0.000327024 W

              L2_Local Predictor:
                Area = 0.00661857 mm^2
                Peak Dynamic = 0.00333484 W
                Subthreshold Leakage = 0.000457985 W
                Subthreshold Leakage with power gating = 0.00021904 W
                Gate Leakage = 0.000109414 W
                Runtime Dynamic = 0.000166851 W

              Chooser:
                Area = 0.0218979 mm^2
                Peak Dynamic = 0.0077921 W
                Subthreshold Leakage = 0.00178236 W
                Subthreshold Leakage with power gating = 0.000855551 W
                Gate Leakage = 0.000370196 W
                Runtime Dynamic = 0.000378226 W

              RAS:
                Area = 0.00529751 mm^2
                Peak Dynamic = 0.00547237 W
                Subthreshold Leakage = 0.000218626 W
                Subthreshold Leakage with power gating = 0.000108298 W
                Gate Leakage = 6.23254e-05 W
                Runtime Dynamic = 0.000221179 W

          Instruction Buffer:
            Area = 0.0111146 mm^2
            Peak Dynamic = 0.290305 W
            Subthreshold Leakage = 0.000365712 W
            Subthreshold Leakage with power gating = 0.000153616 W
            Gate Leakage = 9.42121e-05 W
            Runtime Dynamic = 0.0150935 W

          Instruction Decoder:
            Area = 0.939544 mm^2
            Peak Dynamic = 0.566091 W
            Subthreshold Leakage = 0.102165 W
            Subthreshold Leakage with power gating = 0.0344807 W
            Gate Leakage = 0.028867 W
            Runtime Dynamic = 0.0441482 W

      Renaming Unit:
        Area = 0.187354 mm^2
        Peak Dynamic = 2.14888 W
        Subthreshold Leakage = 0.0176949 W
        Subthreshold Leakage with power gating = 0.00901078 W
        Gate Leakage = 0.0121236 W
        Runtime Dynamic = 0.0710117 W

          Int Front End RAT:
            Area = 0.0583904 mm^2
            Peak Dynamic = 0.386173 W
            Subthreshold Leakage = 0.00151853 W
            Subthreshold Leakage with power gating = 0.000865565 W
            Gate Leakage = 0.000537576 W
            Runtime Dynamic = 0.0275291 W

          FP Front End RAT:
            Area = 0.0852001 mm^2
            Peak Dynamic = 1.61287 W
            Subthreshold Leakage = 0.0114141 W
            Subthreshold Leakage with power gating = 0.00650604 W
            Gate Leakage = 0.00723124 W
            Runtime Dynamic = 0.0400937 W

          Free List:
            Area = 0.0209802 mm^2
            Peak Dynamic = 0.0187401 W
            Subthreshold Leakage = 0.000157165 W
            Subthreshold Leakage with power gating = 8.49701e-05 W
            Gate Leakage = 5.50825e-05 W
            Runtime Dynamic = 0.00338884 W

      Load Store Unit:
        Area = 1.98568 mm^2
        Peak Dynamic = 0.966963 W
        Subthreshold Leakage = 0.0912613 W
        Subthreshold Leakage with power gating = 0.0480116 W
        Gate Leakage = 0.0319237 W
        Runtime Dynamic = 0.132958 W

          Data Cache:
            Area = 1.5316 mm^2
            Peak Dynamic = 0.919215 W
            Subthreshold Leakage = 0.0809419 W
            Subthreshold Leakage with power gating = 0.0432002 W
            Gate Leakage = 0.025643 W
            Runtime Dynamic = 0.08228 W

          LoadQ:
            Area = 0.0430063 mm^2
            Peak Dynamic = 0.0140877 W
            Subthreshold Leakage = 0.00238113 W
            Subthreshold Leakage with power gating = 0.00135725 W
            Gate Leakage = 0.000855022 W
            Runtime Dynamic = 0.0140876 W

          StoreQ:
            Area = 0.0515274 mm^2
            Peak Dynamic = 0.0182951 W
            Subthreshold Leakage = 0.00333321 W
            Subthreshold Leakage with power gating = 0.00189993 W
            Gate Leakage = 0.00112608 W
            Runtime Dynamic = 0.0365901 W

      Memory Management Unit:
        Area = 0.100456 mm^2
        Peak Dynamic = 0.103003 W
        Subthreshold Leakage = 0.0106657 W
        Subthreshold Leakage with power gating = 0.00500875 W
        Gate Leakage = 0.0062802 W
        Runtime Dynamic = 0.0145726 W

          Itlb:
            Area = 0.0319967 mm^2
            Peak Dynamic = 0.0180315 W
            Subthreshold Leakage = 0.00232604 W
            Subthreshold Leakage with power gating = 0.00132584 W
            Gate Leakage = 0.000775623 W
            Runtime Dynamic = 0.00268944 W

          Dtlb:
            Area = 0.0456762 mm^2
            Peak Dynamic = 0.011743 W
            Subthreshold Leakage = 0.00373455 W
            Subthreshold Leakage with power gating = 0.00212869 W
            Gate Leakage = 0.00120491 W
            Runtime Dynamic = 0.0118831 W

      Execution Unit:
        Area = 4.30453 mm^2
        Peak Dynamic = 2.59378 W
        Subthreshold Leakage = 0.36545 W
        Subthreshold Leakage with power gating = 0.129924 W
        Gate Leakage = 0.137753 W
        Runtime Dynamic = 1.05662 W

          Register Files:
            Area = 0.293668 mm^2
            Peak Dynamic = 0.031554 W
            Subthreshold Leakage = 0.00262543 W
            Subthreshold Leakage with power gating = 0.000992351 W
            Gate Leakage = 0.00090702 W
            Runtime Dynamic = 0.0182092 W

              Integer RF:
                Area = 0.186234 mm^2
                Peak Dynamic = 0.0200218 W
                Subthreshold Leakage = 0.00159167 W
                Subthreshold Leakage with power gating = 0.000581031 W
                Gate Leakage = 0.000571424 W
                Runtime Dynamic = 0.0160557 W

              Floating Point RF:
                Area = 0.107434 mm^2
                Peak Dynamic = 0.0115322 W
                Subthreshold Leakage = 0.00103377 W
                Subthreshold Leakage with power gating = 0.00041132 W
                Gate Leakage = 0.000335596 W
                Runtime Dynamic = 0.00215354 W

          Instruction Scheduler:
            Area = 1.11343 mm^2
            Peak Dynamic = 2.36434 W
            Subthreshold Leakage = 0.0299356 W
            Subthreshold Leakage with power gating = 0.0165819 W
            Gate Leakage = 0.0107484 W
            Runtime Dynamic = 0.231106 W

              Instruction Window:
                Area = 0.519531 mm^2
                Peak Dynamic = 1.01319 W
                Subthreshold Leakage = 0.0210861 W
                Subthreshold Leakage with power gating = 0.0119994 W
                Gate Leakage = 0.00784113 W
                Runtime Dynamic = 0.103388 W

              FP Instruction Window:
                Area = 0.167689 mm^2
                Peak Dynamic = 0.592068 W
                Subthreshold Leakage = 0.00447456 W
                Subthreshold Leakage with power gating = 0.00253081 W
                Gate Leakage = 0.0017016 W
                Runtime Dynamic = 0.0600094 W

              ROB:
                Area = 0.426209 mm^2
                Peak Dynamic = 0.75908 W
                Subthreshold Leakage = 0.00437495 W
                Subthreshold Leakage with power gating = 0.0020517 W
                Gate Leakage = 0.00120572 W
                Runtime Dynamic = 0.0677088 W

          Integer ALUs (Count: 6 ):
            Area = 0.329609 mm^2
            Peak Dynamic = 0.0550791 W
            Subthreshold Leakage = 0.0927722 W
            Subthreshold Leakage with power gating = 0.0313106 W
            Gate Leakage = 0.0344197 W
            Runtime Dynamic = 0.149707 W

          Floating Point Units (FPUs) (Count: 2 ):
            Area = 2.35571 mm^2
            Peak Dynamic = 0.0724871 W
            Subthreshold Leakage = 0.16576 W
            Subthreshold Leakage with power gating = 0.055944 W
            Gate Leakage = 0.0614991 W
            Runtime Dynamic = 0.325533 W

          Complex ALUs (Mul/Div) (Count: 1 ):
            Area = 0.164805 mm^2
            Peak Dynamic = 0.014542 W
            Subthreshold Leakage = 0.0463861 W
            Subthreshold Leakage with power gating = 0.0156553 W
            Gate Leakage = 0.0172098 W
            Runtime Dynamic = 0.2074 W

          Results Broadcast Bus:
            Area Overhead = 0.0245306 mm^2
            Peak Dynamic = 0.0500434 W
            Subthreshold Leakage = 0.0233657 W
            Subthreshold Leakage with power gating = 0.00788591 W
            Gate Leakage = 0.00866896 W
            Runtime Dynamic = 0.124665 W

*****************************************************************************************
Core:
      Area = 12.6963 mm^2
      Peak Dynamic = 7.80501 W
      Subthreshold Leakage = 1.14508 W
      Subthreshold Leakage with power gating = 0.431469 W
      Gate Leakage = 0.431123 W
      Runtime Dynamic = 1.39548 W

      Instruction Fetch Unit:
        Area = 3.04058 mm^2
        Peak Dynamic = 1.99236 W
        Subthreshold Leakage = 0.226888 W
        Subthreshold Leakage with power gating = 0.0933342 W
        Gate Leakage = 0.082348 W
        Runtime Dynamic = 0.120076 W

          Instruction Cache:
            Area = 1.60147 mm^2
            Peak Dynamic = 0.983384 W
            Subthreshold Leakage = 0.093335 W
            Subthreshold Leakage with power gating = 0.044301 W
            Gate Leakage = 0.042566 W
            Runtime Dynamic = 0.0557778 W

          Branch Target Buffer:
            Area = 0.397072 mm^2
            Peak Dynamic = 0.0840866 W
            Subthreshold Leakage = 0.02173 W
            Subthreshold Leakage with power gating = 0.0105914 W
            Gate Leakage = 0.00551055 W
            Runtime Dynamic = 0.00374406 W

          Branch Predictor:
            Area = 0.0686002 mm^2
            Peak Dynamic = 0.0275933 W
            Subthreshold Leakage = 0.00468696 W
            Subthreshold Leakage with power gating = 0.00225328 W
            Gate Leakage = 0.00101062 W
            Runtime Dynamic = 0.00130491 W

              Global Predictor:
                Area = 0.0218979 mm^2
                Peak Dynamic = 0.0077921 W
                Subthreshold Leakage = 0.00178236 W
                Subthreshold Leakage with power gating = 0.000855551 W
                Gate Leakage = 0.000370196 W
                Runtime Dynamic = 0.000378303 W

              Local Predictor:
              L1_Local Predictor:
                Area = 0.0128884 mm^2
                Peak Dynamic = 0.00653673 W
                Subthreshold Leakage = 0.000903617 W
                Subthreshold Leakage with power gating = 0.000433877 W
                Gate Leakage = 0.000207902 W
                Runtime Dynamic = 0.000327095 W

              L2_Local Predictor:
                Area = 0.00661857 mm^2
                Peak Dynamic = 0.00333484 W
                Subthreshold Leakage = 0.000457985 W
                Subthreshold Leakage with power gating = 0.00021904 W
                Gate Leakage = 0.000109414 W
                Runtime Dynamic = 0.000166887 W

              Chooser:
                Area = 0.0218979 mm^2
                Peak Dynamic = 0.0077921 W
                Subthreshold Leakage = 0.00178236 W
                Subthreshold Leakage with power gating = 0.000855551 W
                Gate Leakage = 0.000370196 W
                Runtime Dynamic = 0.000378303 W

              RAS:
                Area = 0.00529751 mm^2
                Peak Dynamic = 0.00547237 W
                Subthreshold Leakage = 0.000218626 W
                Subthreshold Leakage with power gating = 0.000108298 W
                Gate Leakage = 6.23254e-05 W
                Runtime Dynamic = 0.000221206 W

          Instruction Buffer:
            Area = 0.0111146 mm^2
            Peak Dynamic = 0.290305 W
            Subthreshold Leakage = 0.000365712 W
            Subthreshold Leakage with power gating = 0.000153616 W
            Gate Leakage = 9.42121e-05 W
            Runtime Dynamic = 0.0150954 W

          Instruction Decoder:
            Area = 0.939544 mm^2
            Peak Dynamic = 0.566091 W
            Subthreshold Leakage = 0.102165 W
            Subthreshold Leakage with power gating = 0.0344807 W
            Gate Leakage = 0.028867 W
            Runtime Dynamic = 0.0441538 W

      Renaming Unit:
        Area = 0.187354 mm^2
        Peak Dynamic = 2.14888 W
        Subthreshold Leakage = 0.0176949 W
        Subthreshold Leakage with power gating = 0.00901078 W
        Gate Leakage = 0.0121236 W
        Runtime Dynamic = 0.0710157 W

          Int Front End RAT:
            Area = 0.0583904 mm^2
            Peak Dynamic = 0.386173 W
            Subthreshold Leakage = 0.00151853 W
            Subthreshold Leakage with power gating = 0.000865565 W
            Gate Leakage = 0.000537576 W
            Runtime Dynamic = 0.0275327 W

          FP Front End RAT:
            Area = 0.0852001 mm^2
            Peak Dynamic = 1.61287 W
            Subthreshold Leakage = 0.0114141 W
            Subthreshold Leakage with power gating = 0.00650604 W
            Gate Leakage = 0.00723124 W
            Runtime Dynamic = 0.0400937 W

          Free List:
            Area = 0.0209802 mm^2
            Peak Dynamic = 0.0187401 W
            Subthreshold Leakage = 0.000157165 W
            Subthreshold Leakage with power gating = 8.49701e-05 W
            Gate Leakage = 5.50825e-05 W
            Runtime Dynamic = 0.00338921 W

      Load Store Unit:
        Area = 1.98568 mm^2
        Peak Dynamic = 0.966975 W
        Subthreshold Leakage = 0.0912613 W
        Subthreshold Leakage with power gating = 0.0480116 W
        Gate Leakage = 0.0319237 W
        Runtime Dynamic = 0.133143 W

          Data Cache:
            Area = 1.5316 mm^2
            Peak Dynamic = 0.919225 W
            Subthreshold Leakage = 0.0809419 W
            Subthreshold Leakage with power gating = 0.0432002 W
            Gate Leakage = 0.025643 W
            Runtime Dynamic = 0.0824635 W

          LoadQ:
            Area = 0.0430063 mm^2
            Peak Dynamic = 0.0140882 W
            Subthreshold Leakage = 0.00238113 W
            Subthreshold Leakage with power gating = 0.00135725 W
            Gate Leakage = 0.000855022 W
            Runtime Dynamic = 0.0140882 W

          StoreQ:
            Area = 0.0515274 mm^2
            Peak Dynamic = 0.0182958 W
            Subthreshold Leakage = 0.00333321 W
            Subthreshold Leakage with power gating = 0.00189993 W
            Gate Leakage = 0.00112608 W
            Runtime Dynamic = 0.0365916 W

      Memory Management Unit:
        Area = 0.100456 mm^2
        Peak Dynamic = 0.103006 W
        Subthreshold Leakage = 0.0106657 W
        Subthreshold Leakage with power gating = 0.00500875 W
        Gate Leakage = 0.0062802 W
        Runtime Dynamic = 0.0145773 W

          Itlb:
            Area = 0.0319967 mm^2
            Peak Dynamic = 0.0180338 W
            Subthreshold Leakage = 0.00232604 W
            Subthreshold Leakage with power gating = 0.00132584 W
            Gate Leakage = 0.000775623 W
            Runtime Dynamic = 0.00268987 W

          Dtlb:
            Area = 0.0456762 mm^2
            Peak Dynamic = 0.0117434 W
            Subthreshold Leakage = 0.00373455 W
            Subthreshold Leakage with power gating = 0.00212869 W
            Gate Leakage = 0.00120491 W
            Runtime Dynamic = 0.0118874 W

      Execution Unit:
        Area = 4.30453 mm^2
        Peak Dynamic = 2.59379 W
        Subthreshold Leakage = 0.36545 W
        Subthreshold Leakage with power gating = 0.129924 W
        Gate Leakage = 0.137753 W
        Runtime Dynamic = 1.05667 W

          Register Files:
            Area = 0.293668 mm^2
            Peak Dynamic = 0.0315559 W
            Subthreshold Leakage = 0.00262543 W
            Subthreshold Leakage with power gating = 0.000992351 W
            Gate Leakage = 0.00090702 W
            Runtime Dynamic = 0.0182115 W

              Integer RF:
                Area = 0.186234 mm^2
                Peak Dynamic = 0.0200236 W
                Subthreshold Leakage = 0.00159167 W
                Subthreshold Leakage with power gating = 0.000581031 W
                Gate Leakage = 0.000571424 W
                Runtime Dynamic = 0.0160577 W

              Floating Point RF:
                Area = 0.107434 mm^2
                Peak Dynamic = 0.0115322 W
                Subthreshold Leakage = 0.00103377 W
                Subthreshold Leakage with power gating = 0.00041132 W
                Gate Leakage = 0.000335596 W
                Runtime Dynamic = 0.00215382 W

          Instruction Scheduler:
            Area = 1.11343 mm^2
            Peak Dynamic = 2.36434 W
            Subthreshold Leakage = 0.0299356 W
            Subthreshold Leakage with power gating = 0.0165819 W
            Gate Leakage = 0.0107484 W
            Runtime Dynamic = 0.231135 W

              Instruction Window:
                Area = 0.519531 mm^2
                Peak Dynamic = 1.01319 W
                Subthreshold Leakage = 0.0210861 W
                Subthreshold Leakage with power gating = 0.0119994 W
                Gate Leakage = 0.00784113 W
                Runtime Dynamic = 0.103401 W

              FP Instruction Window:
                Area = 0.167689 mm^2
                Peak Dynamic = 0.592068 W
                Subthreshold Leakage = 0.00447456 W
                Subthreshold Leakage with power gating = 0.00253081 W
                Gate Leakage = 0.0017016 W
                Runtime Dynamic = 0.0600171 W

              ROB:
                Area = 0.426209 mm^2
                Peak Dynamic = 0.75908 W
                Subthreshold Leakage = 0.00437495 W
                Subthreshold Leakage with power gating = 0.0020517 W
                Gate Leakage = 0.00120572 W
                Runtime Dynamic = 0.0677172 W

          Integer ALUs (Count: 6 ):
            Area = 0.329609 mm^2
            Peak Dynamic = 0.0550866 W
            Subthreshold Leakage = 0.0927722 W
            Subthreshold Leakage with power gating = 0.0313106 W
            Gate Leakage = 0.0344197 W
            Runtime Dynamic = 0.149714 W

          Floating Point Units (FPUs) (Count: 2 ):
            Area = 2.35571 mm^2
            Peak Dynamic = 0.0724871 W
            Subthreshold Leakage = 0.16576 W
            Subthreshold Leakage with power gating = 0.055944 W
            Gate Leakage = 0.0614991 W
            Runtime Dynamic = 0.325533 W

          Complex ALUs (Mul/Div) (Count: 1 ):
            Area = 0.164805 mm^2
            Peak Dynamic = 0.014542 W
            Subthreshold Leakage = 0.0463861 W
            Subthreshold Leakage with power gating = 0.0156553 W
            Gate Leakage = 0.0172098 W
            Runtime Dynamic = 0.2074 W

          Results Broadcast Bus:
            Area Overhead = 0.0245306 mm^2
            Peak Dynamic = 0.0500477 W
            Subthreshold Leakage = 0.0233657 W
            Subthreshold Leakage with power gating = 0.00788591 W
            Gate Leakage = 0.00866896 W
            Runtime Dynamic = 0.124678 W

*****************************************************************************************
Core:
      Area = 12.6963 mm^2
      Peak Dynamic = 7.8053 W
      Subthreshold Leakage = 1.14508 W
      Subthreshold Leakage with power gating = 0.431469 W
      Gate Leakage = 0.431123 W
      Runtime Dynamic = 1.39554 W

      Instruction Fetch Unit:
        Area = 3.04058 mm^2
        Peak Dynamic = 1.99259 W
        Subthreshold Leakage = 0.226888 W
        Subthreshold Leakage with power gating = 0.0933342 W
        Gate Leakage = 0.082348 W
        Runtime Dynamic = 0.120094 W

          Instruction Cache:
            Area = 1.60147 mm^2
            Peak Dynamic = 0.983608 W
            Subthreshold Leakage = 0.093335 W
            Subthreshold Leakage with power gating = 0.044301 W
            Gate Leakage = 0.042566 W
            Runtime Dynamic = 0.0557815 W

          Branch Target Buffer:
            Area = 0.397072 mm^2
            Peak Dynamic = 0.0840866 W
            Subthreshold Leakage = 0.02173 W
            Subthreshold Leakage with power gating = 0.0105914 W
            Gate Leakage = 0.00551055 W
            Runtime Dynamic = 0.00374461 W

          Branch Predictor:
            Area = 0.0686002 mm^2
            Peak Dynamic = 0.0275933 W
            Subthreshold Leakage = 0.00468696 W
            Subthreshold Leakage with power gating = 0.00225328 W
            Gate Leakage = 0.00101062 W
            Runtime Dynamic = 0.00130513 W

              Global Predictor:
                Area = 0.0218979 mm^2
                Peak Dynamic = 0.0077921 W
                Subthreshold Leakage = 0.00178236 W
                Subthreshold Leakage with power gating = 0.000855551 W
                Gate Leakage = 0.000370196 W
                Runtime Dynamic = 0.000378363 W

              Local Predictor:
              L1_Local Predictor:
                Area = 0.0128884 mm^2
                Peak Dynamic = 0.00653673 W
                Subthreshold Leakage = 0.000903617 W
                Subthreshold Leakage with power gating = 0.000433877 W
                Gate Leakage = 0.000207902 W
                Runtime Dynamic = 0.000327148 W

              L2_Local Predictor:
                Area = 0.00661857 mm^2
                Peak Dynamic = 0.00333484 W
                Subthreshold Leakage = 0.000457985 W
                Subthreshold Leakage with power gating = 0.00021904 W
                Gate Leakage = 0.000109414 W
                Runtime Dynamic = 0.000166914 W

              Chooser:
                Area = 0.0218979 mm^2
                Peak Dynamic = 0.0077921 W
                Subthreshold Leakage = 0.00178236 W
                Subthreshold Leakage with power gating = 0.000855551 W
                Gate Leakage = 0.000370196 W
                Runtime Dynamic = 0.000378363 W

              RAS:
                Area = 0.00529751 mm^2
                Peak Dynamic = 0.00547237 W
                Subthreshold Leakage = 0.000218626 W
                Subthreshold Leakage with power gating = 0.000108298 W
                Gate Leakage = 6.23254e-05 W
                Runtime Dynamic = 0.000221259 W

          Instruction Buffer:
            Area = 0.0111146 mm^2
            Peak Dynamic = 0.290305 W
            Subthreshold Leakage = 0.000365712 W
            Subthreshold Leakage with power gating = 0.000153616 W
            Gate Leakage = 9.42121e-05 W
            Runtime Dynamic = 0.0150989 W

          Instruction Decoder:
            Area = 0.939544 mm^2
            Peak Dynamic = 0.566091 W
            Subthreshold Leakage = 0.102165 W
            Subthreshold Leakage with power gating = 0.0344807 W
            Gate Leakage = 0.028867 W
            Runtime Dynamic = 0.0441639 W

      Renaming Unit:
        Area = 0.187354 mm^2
        Peak Dynamic = 2.14888 W
        Subthreshold Leakage = 0.0176949 W
        Subthreshold Leakage with power gating = 0.00901078 W
        Gate Leakage = 0.0121236 W
        Runtime Dynamic = 0.0710231 W

          Int Front End RAT:
            Area = 0.0583904 mm^2
            Peak Dynamic = 0.386173 W
            Subthreshold Leakage = 0.00151853 W
            Subthreshold Leakage with power gating = 0.000865565 W
            Gate Leakage = 0.000537576 W
            Runtime Dynamic = 0.0275394 W

          FP Front End RAT:
            Area = 0.0852001 mm^2
            Peak Dynamic = 1.61287 W
            Subthreshold Leakage = 0.0114141 W
            Subthreshold Leakage with power gating = 0.00650604 W
            Gate Leakage = 0.00723124 W
            Runtime Dynamic = 0.0400937 W

          Free List:
            Area = 0.0209802 mm^2
            Peak Dynamic = 0.0187401 W
            Subthreshold Leakage = 0.000157165 W
            Subthreshold Leakage with power gating = 8.49701e-05 W
            Gate Leakage = 5.50825e-05 W
            Runtime Dynamic = 0.00338988 W

      Load Store Unit:
        Area = 1.98568 mm^2
        Peak Dynamic = 0.966996 W
        Subthreshold Leakage = 0.0912613 W
        Subthreshold Leakage with power gating = 0.0480116 W
        Gate Leakage = 0.0319237 W
        Runtime Dynamic = 0.133087 W

          Data Cache:
            Area = 1.5316 mm^2
            Peak Dynamic = 0.919244 W
            Subthreshold Leakage = 0.0809419 W
            Subthreshold Leakage with power gating = 0.0432002 W
            Gate Leakage = 0.025643 W
            Runtime Dynamic = 0.0824042 W

          LoadQ:
            Area = 0.0430063 mm^2
            Peak Dynamic = 0.014089 W
            Subthreshold Leakage = 0.00238113 W
            Subthreshold Leakage with power gating = 0.00135725 W
            Gate Leakage = 0.000855022 W
            Runtime Dynamic = 0.014089 W

          StoreQ:
            Area = 0.0515274 mm^2
            Peak Dynamic = 0.0182969 W
            Subthreshold Leakage = 0.00333321 W
            Subthreshold Leakage with power gating = 0.00189993 W
            Gate Leakage = 0.00112608 W
            Runtime Dynamic = 0.0365936 W

      Memory Management Unit:
        Area = 0.100456 mm^2
        Peak Dynamic = 0.103011 W
        Subthreshold Leakage = 0.0106657 W
        Subthreshold Leakage with power gating = 0.00500875 W
        Gate Leakage = 0.0062802 W
        Runtime Dynamic = 0.0145771 W

          Itlb:
            Area = 0.0319967 mm^2
            Peak Dynamic = 0.0180379 W
            Subthreshold Leakage = 0.00232604 W
            Subthreshold Leakage with power gating = 0.00132584 W
            Gate Leakage = 0.000775623 W
            Runtime Dynamic = 0.0026899 W

          Dtlb:
            Area = 0.0456762 mm^2
            Peak Dynamic = 0.0117442 W
            Subthreshold Leakage = 0.00373455 W
            Subthreshold Leakage with power gating = 0.00212869 W
            Gate Leakage = 0.00120491 W
            Runtime Dynamic = 0.0118872 W

      Execution Unit:
        Area = 4.30453 mm^2
        Peak Dynamic = 2.59382 W
        Subthreshold Leakage = 0.36545 W
        Subthreshold Leakage with power gating = 0.129924 W
        Gate Leakage = 0.137753 W
        Runtime Dynamic = 1.05676 W

          Register Files:
            Area = 0.293668 mm^2
            Peak Dynamic = 0.0315595 W
            Subthreshold Leakage = 0.00262543 W
            Subthreshold Leakage with power gating = 0.000992351 W
            Gate Leakage = 0.00090702 W
            Runtime Dynamic = 0.0182157 W

              Integer RF:
                Area = 0.186234 mm^2
                Peak Dynamic = 0.0200273 W
                Subthreshold Leakage = 0.00159167 W
                Subthreshold Leakage with power gating = 0.000581031 W
                Gate Leakage = 0.000571424 W
                Runtime Dynamic = 0.0160614 W

              Floating Point RF:
                Area = 0.107434 mm^2
                Peak Dynamic = 0.0115322 W
                Subthreshold Leakage = 0.00103377 W
                Subthreshold Leakage with power gating = 0.00041132 W
                Gate Leakage = 0.000335596 W
                Runtime Dynamic = 0.00215431 W

          Instruction Scheduler:
            Area = 1.11343 mm^2
            Peak Dynamic = 2.36434 W
            Subthreshold Leakage = 0.0299356 W
            Subthreshold Leakage with power gating = 0.0165819 W
            Gate Leakage = 0.0107484 W
            Runtime Dynamic = 0.231184 W

              Instruction Window:
                Area = 0.519531 mm^2
                Peak Dynamic = 1.01319 W
                Subthreshold Leakage = 0.0210861 W
                Subthreshold Leakage with power gating = 0.0119994 W
                Gate Leakage = 0.00784113 W
                Runtime Dynamic = 0.103424 W

              FP Instruction Window:
                Area = 0.167689 mm^2
                Peak Dynamic = 0.592068 W
                Subthreshold Leakage = 0.00447456 W
                Subthreshold Leakage with power gating = 0.00253081 W
                Gate Leakage = 0.0017016 W
                Runtime Dynamic = 0.0600308 W

              ROB:
                Area = 0.426209 mm^2
                Peak Dynamic = 0.75908 W
                Subthreshold Leakage = 0.00437495 W
                Subthreshold Leakage with power gating = 0.0020517 W
                Gate Leakage = 0.00120572 W
                Runtime Dynamic = 0.0677293 W

          Integer ALUs (Count: 6 ):
            Area = 0.329609 mm^2
            Peak Dynamic = 0.0551018 W
            Subthreshold Leakage = 0.0927722 W
            Subthreshold Leakage with power gating = 0.0313106 W
            Gate Leakage = 0.0344197 W
            Runtime Dynamic = 0.149726 W

          Floating Point Units (FPUs) (Count: 2 ):
            Area = 2.35571 mm^2
            Peak Dynamic = 0.0724871 W
            Subthreshold Leakage = 0.16576 W
            Subthreshold Leakage with power gating = 0.055944 W
            Gate Leakage = 0.0614991 W
            Runtime Dynamic = 0.325533 W

          Complex ALUs (Mul/Div) (Count: 1 ):
            Area = 0.164805 mm^2
            Peak Dynamic = 0.014542 W
            Subthreshold Leakage = 0.0463861 W
            Subthreshold Leakage with power gating = 0.0156553 W
            Gate Leakage = 0.0172098 W
            Runtime Dynamic = 0.2074 W

          Results Broadcast Bus:
            Area Overhead = 0.0245306 mm^2
            Peak Dynamic = 0.0500562 W
            Subthreshold Leakage = 0.0233657 W
            Subthreshold Leakage with power gating = 0.00788591 W
            Gate Leakage = 0.00866896 W
            Runtime Dynamic = 0.124698 W

*****************************************************************************************
Core:
      Area = 12.6963 mm^2
      Peak Dynamic = 7.805 W
      Subthreshold Leakage = 1.14508 W
      Subthreshold Leakage with power gating = 0.431469 W
      Gate Leakage = 0.431123 W
      Runtime Dynamic = 1.39536 W

      Instruction Fetch Unit:
        Area = 3.04058 mm^2
        Peak Dynamic = 1.99236 W
        Subthreshold Leakage = 0.226888 W
        Subthreshold Leakage with power gating = 0.0933342 W
        Gate Leakage = 0.082348 W
        Runtime Dynamic = 0.120076 W

          Instruction Cache:
            Area = 1.60147 mm^2
            Peak Dynamic = 0.983381 W
            Subthreshold Leakage = 0.093335 W
            Subthreshold Leakage with power gating = 0.044301 W
            Gate Leakage = 0.042566 W
            Runtime Dynamic = 0.0557778 W

          Branch Target Buffer:
            Area = 0.397072 mm^2
            Peak Dynamic = 0.0840866 W
            Subthreshold Leakage = 0.02173 W
            Subthreshold Leakage with power gating = 0.0105914 W
            Gate Leakage = 0.00551055 W
            Runtime Dynamic = 0.00374406 W

          Branch Predictor:
            Area = 0.0686002 mm^2
            Peak Dynamic = 0.0275933 W
            Subthreshold Leakage = 0.00468696 W
            Subthreshold Leakage with power gating = 0.00225328 W
            Gate Leakage = 0.00101062 W
            Runtime Dynamic = 0.00130491 W

              Global Predictor:
                Area = 0.0218979 mm^2
                Peak Dynamic = 0.0077921 W
                Subthreshold Leakage = 0.00178236 W
                Subthreshold Leakage with power gating = 0.000855551 W
                Gate Leakage = 0.000370196 W
                Runtime Dynamic = 0.000378303 W

              Local Predictor:
              L1_Local Predictor:
                Area = 0.0128884 mm^2
                Peak Dynamic = 0.00653673 W
                Subthreshold Leakage = 0.000903617 W
                Subthreshold Leakage with power gating = 0.000433877 W
                Gate Leakage = 0.000207902 W
                Runtime Dynamic = 0.000327095 W

              L2_Local Predictor:
                Area = 0.00661857 mm^2
                Peak Dynamic = 0.00333484 W
                Subthreshold Leakage = 0.000457985 W
                Subthreshold Leakage with power gating = 0.00021904 W
                Gate Leakage = 0.000109414 W
                Runtime Dynamic = 0.000166887 W

              Chooser:
                Area = 0.0218979 mm^2
                Peak Dynamic = 0.0077921 W
                Subthreshold Leakage = 0.00178236 W
                Subthreshold Leakage with power gating = 0.000855551 W
                Gate Leakage = 0.000370196 W
                Runtime Dynamic = 0.000378303 W

              RAS:
                Area = 0.00529751 mm^2
                Peak Dynamic = 0.00547237 W
                Subthreshold Leakage = 0.000218626 W
                Subthreshold Leakage with power gating = 0.000108298 W
                Gate Leakage = 6.23254e-05 W
                Runtime Dynamic = 0.000221206 W

          Instruction Buffer:
            Area = 0.0111146 mm^2
            Peak Dynamic = 0.290305 W
            Subthreshold Leakage = 0.000365712 W
            Subthreshold Leakage with power gating = 0.000153616 W
            Gate Leakage = 9.42121e-05 W
            Runtime Dynamic = 0.0150954 W

          Instruction Decoder:
            Area = 0.939544 mm^2
            Peak Dynamic = 0.566091 W
            Subthreshold Leakage = 0.102165 W
            Subthreshold Leakage with power gating = 0.0344807 W
            Gate Leakage = 0.028867 W
            Runtime Dynamic = 0.0441537 W

      Renaming Unit:
        Area = 0.187354 mm^2
        Peak Dynamic = 2.14888 W
        Subthreshold Leakage = 0.0176949 W
        Subthreshold Leakage with power gating = 0.00901078 W
        Gate Leakage = 0.0121236 W
        Runtime Dynamic = 0.0710156 W

          Int Front End RAT:
            Area = 0.0583904 mm^2
            Peak Dynamic = 0.386173 W
            Subthreshold Leakage = 0.00151853 W
            Subthreshold Leakage with power gating = 0.000865565 W
            Gate Leakage = 0.000537576 W
            Runtime Dynamic = 0.0275326 W

          FP Front End RAT:
            Area = 0.0852001 mm^2
            Peak Dynamic = 1.61287 W
            Subthreshold Leakage = 0.0114141 W
            Subthreshold Leakage with power gating = 0.00650604 W
            Gate Leakage = 0.00723124 W
            Runtime Dynamic = 0.0400937 W

          Free List:
            Area = 0.0209802 mm^2
            Peak Dynamic = 0.0187401 W
            Subthreshold Leakage = 0.000157165 W
            Subthreshold Leakage with power gating = 8.49701e-05 W
            Gate Leakage = 5.50825e-05 W
            Runtime Dynamic = 0.0033892 W

      Load Store Unit:
        Area = 1.98568 mm^2
        Peak Dynamic = 0.966975 W
        Subthreshold Leakage = 0.0912613 W
        Subthreshold Leakage with power gating = 0.0480116 W
        Gate Leakage = 0.0319237 W
        Runtime Dynamic = 0.133021 W

          Data Cache:
            Area = 1.5316 mm^2
            Peak Dynamic = 0.919225 W
            Subthreshold Leakage = 0.0809419 W
            Subthreshold Leakage with power gating = 0.0432002 W
            Gate Leakage = 0.025643 W
            Runtime Dynamic = 0.0823407 W

          LoadQ:
            Area = 0.0430063 mm^2
            Peak Dynamic = 0.0140882 W
            Subthreshold Leakage = 0.00238113 W
            Subthreshold Leakage with power gating = 0.00135725 W
            Gate Leakage = 0.000855022 W
            Runtime Dynamic = 0.0140882 W

          StoreQ:
            Area = 0.0515274 mm^2
            Peak Dynamic = 0.0182958 W
            Subthreshold Leakage = 0.00333321 W
            Subthreshold Leakage with power gating = 0.00189993 W
            Gate Leakage = 0.00112608 W
            Runtime Dynamic = 0.0365916 W

      Memory Management Unit:
        Area = 0.100456 mm^2
        Peak Dynamic = 0.103006 W
        Subthreshold Leakage = 0.0106657 W
        Subthreshold Leakage with power gating = 0.00500875 W
        Gate Leakage = 0.0062802 W
        Runtime Dynamic = 0.0145736 W

          Itlb:
            Area = 0.0319967 mm^2
            Peak Dynamic = 0.0180337 W
            Subthreshold Leakage = 0.00232604 W
            Subthreshold Leakage with power gating = 0.00132584 W
            Gate Leakage = 0.000775623 W
            Runtime Dynamic = 0.00268987 W

          Dtlb:
            Area = 0.0456762 mm^2
            Peak Dynamic = 0.0117434 W
            Subthreshold Leakage = 0.00373455 W
            Subthreshold Leakage with power gating = 0.00212869 W
            Gate Leakage = 0.00120491 W
            Runtime Dynamic = 0.0118836 W

      Execution Unit:
        Area = 4.30453 mm^2
        Peak Dynamic = 2.59379 W
        Subthreshold Leakage = 0.36545 W
        Subthreshold Leakage with power gating = 0.129924 W
        Gate Leakage = 0.137753 W
        Runtime Dynamic = 1.05667 W

          Register Files:
            Area = 0.293668 mm^2
            Peak Dynamic = 0.0315559 W
            Subthreshold Leakage = 0.00262543 W
            Subthreshold Leakage with power gating = 0.000992351 W
            Gate Leakage = 0.00090702 W
            Runtime Dynamic = 0.0182115 W

              Integer RF:
                Area = 0.186234 mm^2
                Peak Dynamic = 0.0200236 W
                Subthreshold Leakage = 0.00159167 W
                Subthreshold Leakage with power gating = 0.000581031 W
                Gate Leakage = 0.000571424 W
                Runtime Dynamic = 0.0160577 W

              Floating Point RF:
                Area = 0.107434 mm^2
                Peak Dynamic = 0.0115322 W
                Subthreshold Leakage = 0.00103377 W
                Subthreshold Leakage with power gating = 0.00041132 W
                Gate Leakage = 0.000335596 W
                Runtime Dynamic = 0.00215381 W

          Instruction Scheduler:
            Area = 1.11343 mm^2
            Peak Dynamic = 2.36434 W
            Subthreshold Leakage = 0.0299356 W
            Subthreshold Leakage with power gating = 0.0165819 W
            Gate Leakage = 0.0107484 W
            Runtime Dynamic = 0.231134 W

              Instruction Window:
                Area = 0.519531 mm^2
                Peak Dynamic = 1.01319 W
                Subthreshold Leakage = 0.0210861 W
                Subthreshold Leakage with power gating = 0.0119994 W
                Gate Leakage = 0.00784113 W
                Runtime Dynamic = 0.1034 W

              FP Instruction Window:
                Area = 0.167689 mm^2
                Peak Dynamic = 0.592068 W
                Subthreshold Leakage = 0.00447456 W
                Subthreshold Leakage with power gating = 0.00253081 W
                Gate Leakage = 0.0017016 W
                Runtime Dynamic = 0.0600169 W

              ROB:
                Area = 0.426209 mm^2
                Peak Dynamic = 0.75908 W
                Subthreshold Leakage = 0.00437495 W
                Subthreshold Leakage with power gating = 0.0020517 W
                Gate Leakage = 0.00120572 W
                Runtime Dynamic = 0.0677172 W

          Integer ALUs (Count: 6 ):
            Area = 0.329609 mm^2
            Peak Dynamic = 0.0550866 W
            Subthreshold Leakage = 0.0927722 W
            Subthreshold Leakage with power gating = 0.0313106 W
            Gate Leakage = 0.0344197 W
            Runtime Dynamic = 0.149714 W

          Floating Point Units (FPUs) (Count: 2 ):
            Area = 2.35571 mm^2
            Peak Dynamic = 0.0724871 W
            Subthreshold Leakage = 0.16576 W
            Subthreshold Leakage with power gating = 0.055944 W
            Gate Leakage = 0.0614991 W
            Runtime Dynamic = 0.325533 W

          Complex ALUs (Mul/Div) (Count: 1 ):
            Area = 0.164805 mm^2
            Peak Dynamic = 0.014542 W
            Subthreshold Leakage = 0.0463861 W
            Subthreshold Leakage with power gating = 0.0156553 W
            Gate Leakage = 0.0172098 W
            Runtime Dynamic = 0.2074 W

          Results Broadcast Bus:
            Area Overhead = 0.0245306 mm^2
            Peak Dynamic = 0.0500477 W
            Subthreshold Leakage = 0.0233657 W
            Subthreshold Leakage with power gating = 0.00788591 W
            Gate Leakage = 0.00866896 W
            Runtime Dynamic = 0.124678 W

*****************************************************************************************
Core:
      Area = 12.6963 mm^2
      Peak Dynamic = 7.80501 W
      Subthreshold Leakage = 1.14508 W
      Subthreshold Leakage with power gating = 0.431469 W
      Gate Leakage = 0.431123 W
      Runtime Dynamic = 1.39541 W

      Instruction Fetch Unit:
        Area = 3.04058 mm^2
        Peak Dynamic = 1.99236 W
        Subthreshold Leakage = 0.226888 W
        Subthreshold Leakage with power gating = 0.0933342 W
        Gate Leakage = 0.082348 W
        Runtime Dynamic = 0.120076 W

          Instruction Cache:
            Area = 1.60147 mm^2
            Peak Dynamic = 0.983384 W
            Subthreshold Leakage = 0.093335 W
            Subthreshold Leakage with power gating = 0.044301 W
            Gate Leakage = 0.042566 W
            Runtime Dynamic = 0.0557778 W

          Branch Target Buffer:
            Area = 0.397072 mm^2
            Peak Dynamic = 0.0840866 W
            Subthreshold Leakage = 0.02173 W
            Subthreshold Leakage with power gating = 0.0105914 W
            Gate Leakage = 0.00551055 W
            Runtime Dynamic = 0.00374406 W

          Branch Predictor:
            Area = 0.0686002 mm^2
            Peak Dynamic = 0.0275933 W
            Subthreshold Leakage = 0.00468696 W
            Subthreshold Leakage with power gating = 0.00225328 W
            Gate Leakage = 0.00101062 W
            Runtime Dynamic = 0.00130491 W

              Global Predictor:
                Area = 0.0218979 mm^2
                Peak Dynamic = 0.0077921 W
                Subthreshold Leakage = 0.00178236 W
                Subthreshold Leakage with power gating = 0.000855551 W
                Gate Leakage = 0.000370196 W
                Runtime Dynamic = 0.000378303 W

              Local Predictor:
              L1_Local Predictor:
                Area = 0.0128884 mm^2
                Peak Dynamic = 0.00653673 W
                Subthreshold Leakage = 0.000903617 W
                Subthreshold Leakage with power gating = 0.000433877 W
                Gate Leakage = 0.000207902 W
                Runtime Dynamic = 0.000327095 W

              L2_Local Predictor:
                Area = 0.00661857 mm^2
                Peak Dynamic = 0.00333484 W
                Subthreshold Leakage = 0.000457985 W
                Subthreshold Leakage with power gating = 0.00021904 W
[...]
            Peak Dynamic = 0.918662 W
            Subthreshold Leakage = 0.0809419 W
            Subthreshold Leakage with power gating = 0.0432002 W
            Gate Leakage = 0.025643 W
            Runtime Dynamic = 0.0839086 W

          LoadQ:
            Area = 0.0430063 mm^2
            Peak Dynamic = 0.0140624 W
            Subthreshold Leakage = 0.00238113 W
            Subthreshold Leakage with power gating = 0.00135725 W
            Gate Leakage = 0.000855022 W
            Runtime Dynamic = 0.0140625 W

          StoreQ:
            Area = 0.0515274 mm^2
            Peak Dynamic = 0.0182624 W
            Subthreshold Leakage = 0.00333321 W
            Subthreshold Leakage with power gating = 0.00189993 W
            Gate Leakage = 0.00112608 W
            Runtime Dynamic = 0.0365248 W

      Memory Management Unit:
        Area = 0.100456 mm^2
        Peak Dynamic = 0.10294 W
        Subthreshold Leakage = 0.0106657 W
        Subthreshold Leakage with power gating = 0.00500875 W
        Gate Leakage = 0.0062802 W
        Runtime Dynamic = 0.0145935 W

          Itlb:
            Area = 0.0319967 mm^2
            Peak Dynamic = 0.0180035 W
            Subthreshold Leakage = 0.00232604 W
            Subthreshold Leakage with power gating = 0.00132584 W
            Gate Leakage = 0.000775623 W
            Runtime Dynamic = 0.00268605 W

          Dtlb:
            Area = 0.0456762 mm^2
            Peak Dynamic = 0.011722 W
            Subthreshold Leakage = 0.00373455 W
            Subthreshold Leakage with power gating = 0.00212869 W
            Gate Leakage = 0.00120491 W
            Runtime Dynamic = 0.0119074 W

      Execution Unit:
        Area = 4.30453 mm^2
        Peak Dynamic = 2.59358 W
        Subthreshold Leakage = 0.36545 W
        Subthreshold Leakage with power gating = 0.129924 W
        Gate Leakage = 0.137753 W
        Runtime Dynamic = 1.05599 W

          Register Files:
            Area = 0.293668 mm^2
            Peak Dynamic = 0.0315296 W
            Subthreshold Leakage = 0.00262543 W
            Subthreshold Leakage with power gating = 0.000992351 W
            Gate Leakage = 0.00090702 W
            Runtime Dynamic = 0.0181809 W

              Integer RF:
                Area = 0.186234 mm^2
                Peak Dynamic = 0.0199974 W
                Subthreshold Leakage = 0.00159167 W
                Subthreshold Leakage with power gating = 0.000581031 W
                Gate Leakage = 0.000571424 W
                Runtime Dynamic = 0.0160307 W

              Floating Point RF:
                Area = 0.107434 mm^2
                Peak Dynamic = 0.0115322 W
                Subthreshold Leakage = 0.00103377 W
                Subthreshold Leakage with power gating = 0.00041132 W
                Gate Leakage = 0.000335596 W
                Runtime Dynamic = 0.0021502 W

          Instruction Scheduler:
            Area = 1.11343 mm^2
            Peak Dynamic = 2.36434 W
            Subthreshold Leakage = 0.0299356 W
            Subthreshold Leakage with power gating = 0.0165819 W
            Gate Leakage = 0.0107484 W
            Runtime Dynamic = 0.230749 W

              Instruction Window:
                Area = 0.519531 mm^2
                Peak Dynamic = 1.01319 W
                Subthreshold Leakage = 0.0210861 W
                Subthreshold Leakage with power gating = 0.0119994 W
                Gate Leakage = 0.00784113 W
                Runtime Dynamic = 0.103227 W

              FP Instruction Window:
                Area = 0.167689 mm^2
                Peak Dynamic = 0.592068 W
                Subthreshold Leakage = 0.00447456 W
                Subthreshold Leakage with power gating = 0.00253081 W
                Gate Leakage = 0.0017016 W
                Runtime Dynamic = 0.0599162 W

              ROB:
                Area = 0.426209 mm^2
                Peak Dynamic = 0.75908 W
                Subthreshold Leakage = 0.00437495 W
                Subthreshold Leakage with power gating = 0.0020517 W
                Gate Leakage = 0.00120572 W
                Runtime Dynamic = 0.0676059 W

          Integer ALUs (Count: 6 ):
            Area = 0.329609 mm^2
            Peak Dynamic = 0.054977 W
            Subthreshold Leakage = 0.0927722 W
            Subthreshold Leakage with power gating = 0.0313106 W
            Gate Leakage = 0.0344197 W
            Runtime Dynamic = 0.14962 W

          Floating Point Units (FPUs) (Count: 2 ):
            Area = 2.35571 mm^2
            Peak Dynamic = 0.0724871 W
            Subthreshold Leakage = 0.16576 W
            Subthreshold Leakage with power gating = 0.055944 W
            Gate Leakage = 0.0614991 W
            Runtime Dynamic = 0.325533 W

          Complex ALUs (Mul/Div) (Count: 1 ):
            Area = 0.164805 mm^2
            Peak Dynamic = 0.014542 W
            Subthreshold Leakage = 0.0463861 W
            Subthreshold Leakage with power gating = 0.0156553 W
            Gate Leakage = 0.0172098 W
            Runtime Dynamic = 0.2074 W

          Results Broadcast Bus:
            Area Overhead = 0.0245306 mm^2
            Peak Dynamic = 0.0499861 W
            Subthreshold Leakage = 0.0233657 W
            Subthreshold Leakage with power gating = 0.00788591 W
            Gate Leakage = 0.00866896 W
            Runtime Dynamic = 0.124504 W

*****************************************************************************************
Core:
      Area = 12.6963 mm^2
      Peak Dynamic = 7.80239 W
      Subthreshold Leakage = 1.14508 W
      Subthreshold Leakage with power gating = 0.431469 W
      Gate Leakage = 0.431123 W
      Runtime Dynamic = 1.39582 W

      Instruction Fetch Unit:
        Area = 3.04058 mm^2
        Peak Dynamic = 1.99066 W
        Subthreshold Leakage = 0.226888 W
        Subthreshold Leakage with power gating = 0.0933342 W
        Gate Leakage = 0.082348 W
        Runtime Dynamic = 0.119814 W

          Instruction Cache:
            Area = 1.60147 mm^2
            Peak Dynamic = 0.981754 W
            Subthreshold Leakage = 0.093335 W
            Subthreshold Leakage with power gating = 0.044301 W
            Gate Leakage = 0.042566 W
            Runtime Dynamic = 0.0556247 W

          Branch Target Buffer:
            Area = 0.397072 mm^2
            Peak Dynamic = 0.0840866 W
            Subthreshold Leakage = 0.02173 W
            Subthreshold Leakage with power gating = 0.0105914 W
            Gate Leakage = 0.00551055 W
            Runtime Dynamic = 0.00373611 W

          Branch Predictor:
            Area = 0.0686002 mm^2
            Peak Dynamic = 0.0275933 W
            Subthreshold Leakage = 0.00468696 W
            Subthreshold Leakage with power gating = 0.00225328 W
            Gate Leakage = 0.00101062 W
            Runtime Dynamic = 0.00130202 W

              Global Predictor:
                Area = 0.0218979 mm^2
                Peak Dynamic = 0.0077921 W
                Subthreshold Leakage = 0.00178236 W
                Subthreshold Leakage with power gating = 0.000855551 W
                Gate Leakage = 0.000370196 W
                Runtime Dynamic = 0.00037743 W

              Local Predictor:
              L1_Local Predictor:
                Area = 0.0128884 mm^2
                Peak Dynamic = 0.00653673 W
                Subthreshold Leakage = 0.000903617 W
                Subthreshold Leakage with power gating = 0.000433877 W
                Gate Leakage = 0.000207902 W
                Runtime Dynamic = 0.00032632 W

              L2_Local Predictor:
                Area = 0.00661857 mm^2
                Peak Dynamic = 0.00333484 W
                Subthreshold Leakage = 0.000457985 W
                Subthreshold Leakage with power gating = 0.00021904 W
                Gate Leakage = 0.000109414 W
                Runtime Dynamic = 0.000166492 W

              Chooser:
                Area = 0.0218979 mm^2
                Peak Dynamic = 0.0077921 W
                Subthreshold Leakage = 0.00178236 W
                Subthreshold Leakage with power gating = 0.000855551 W
                Gate Leakage = 0.000370196 W
                Runtime Dynamic = 0.00037743 W

              RAS:
                Area = 0.00529751 mm^2
                Peak Dynamic = 0.00547237 W
                Subthreshold Leakage = 0.000218626 W
                Subthreshold Leakage with power gating = 0.000108298 W
                Gate Leakage = 6.23254e-05 W
                Runtime Dynamic = 0.000220836 W

          Instruction Buffer:
            Area = 0.0111146 mm^2
            Peak Dynamic = 0.290305 W
            Subthreshold Leakage = 0.000365712 W
            Subthreshold Leakage with power gating = 0.000153616 W
            Gate Leakage = 9.42121e-05 W
            Runtime Dynamic = 0.0150704 W

          Instruction Decoder:
            Area = 0.939544 mm^2
            Peak Dynamic = 0.566091 W
            Subthreshold Leakage = 0.102165 W
            Subthreshold Leakage with power gating = 0.0344807 W
            Gate Leakage = 0.028867 W
            Runtime Dynamic = 0.0440806 W

      Renaming Unit:
        Area = 0.187354 mm^2
        Peak Dynamic = 2.14888 W
        Subthreshold Leakage = 0.0176949 W
        Subthreshold Leakage with power gating = 0.00901078 W
        Gate Leakage = 0.0121236 W
        Runtime Dynamic = 0.0709635 W

          Int Front End RAT:
            Area = 0.0583904 mm^2
            Peak Dynamic = 0.386173 W
            Subthreshold Leakage = 0.00151853 W
            Subthreshold Leakage with power gating = 0.000865565 W
            Gate Leakage = 0.000537576 W
            Runtime Dynamic = 0.0274854 W

          FP Front End RAT:
            Area = 0.0852001 mm^2
            Peak Dynamic = 1.61287 W
            Subthreshold Leakage = 0.0114141 W
            Subthreshold Leakage with power gating = 0.00650604 W
            Gate Leakage = 0.00723124 W
            Runtime Dynamic = 0.0400937 W

          Free List:
            Area = 0.0209802 mm^2
            Peak Dynamic = 0.0187401 W
            Subthreshold Leakage = 0.000157165 W
            Subthreshold Leakage with power gating = 8.49701e-05 W
            Gate Leakage = 5.50825e-05 W
            Runtime Dynamic = 0.00338437 W

      Load Store Unit:
        Area = 1.98568 mm^2
        Peak Dynamic = 0.966327 W
        Subthreshold Leakage = 0.0912613 W
        Subthreshold Leakage with power gating = 0.0480116 W
        Gate Leakage = 0.0319237 W
        Runtime Dynamic = 0.134452 W

          Data Cache:
            Area = 1.5316 mm^2
            Peak Dynamic = 0.918664 W
            Subthreshold Leakage = 0.0809419 W
            Subthreshold Leakage with power gating = 0.0432002 W
            Gate Leakage = 0.025643 W
            Runtime Dynamic = 0.0838638 W

          LoadQ:
            Area = 0.0430063 mm^2
            Peak Dynamic = 0.0140626 W
            Subthreshold Leakage = 0.00238113 W
            Subthreshold Leakage with power gating = 0.00135725 W
            Gate Leakage = 0.000855022 W
            Runtime Dynamic = 0.0140626 W

          StoreQ:
            Area = 0.0515274 mm^2
            Peak Dynamic = 0.0182625 W
            Subthreshold Leakage = 0.00333321 W
            Subthreshold Leakage with power gating = 0.00189993 W
            Gate Leakage = 0.00112608 W
            Runtime Dynamic = 0.0365251 W

      Memory Management Unit:
        Area = 0.100456 mm^2
        Peak Dynamic = 0.102941 W
        Subthreshold Leakage = 0.0106657 W
        Subthreshold Leakage with power gating = 0.00500875 W
        Gate Leakage = 0.0062802 W
        Runtime Dynamic = 0.0145921 W

          Itlb:
            Area = 0.0319967 mm^2
            Peak Dynamic = 0.0180039 W
            Subthreshold Leakage = 0.00232604 W
            Subthreshold Leakage with power gating = 0.00132584 W
            Gate Leakage = 0.000775623 W
            Runtime Dynamic = 0.00268622 W

          Dtlb:
            Area = 0.0456762 mm^2
            Peak Dynamic = 0.0117221 W
            Subthreshold Leakage = 0.00373455 W
            Subthreshold Leakage with power gating = 0.00212869 W
            Gate Leakage = 0.00120491 W
            Runtime Dynamic = 0.0119058 W

      Execution Unit:
        Area = 4.30453 mm^2
        Peak Dynamic = 2.59358 W
        Subthreshold Leakage = 0.36545 W
        Subthreshold Leakage with power gating = 0.129924 W
        Gate Leakage = 0.137753 W
        Runtime Dynamic = 1.056 W

          Register Files:
            Area = 0.293668 mm^2
            Peak Dynamic = 0.0315299 W
            Subthreshold Leakage = 0.00262543 W
            Subthreshold Leakage with power gating = 0.000992351 W
            Gate Leakage = 0.00090702 W
            Runtime Dynamic = 0.0181813 W

              Integer RF:
                Area = 0.186234 mm^2
                Peak Dynamic = 0.0199977 W
                Subthreshold Leakage = 0.00159167 W
                Subthreshold Leakage with power gating = 0.000581031 W
                Gate Leakage = 0.000571424 W
                Runtime Dynamic = 0.0160311 W

              Floating Point RF:
                Area = 0.107434 mm^2
                Peak Dynamic = 0.0115322 W
                Subthreshold Leakage = 0.00103377 W
                Subthreshold Leakage with power gating = 0.00041132 W
                Gate Leakage = 0.000335596 W
                Runtime Dynamic = 0.00215025 W

          Instruction Scheduler:
            Area = 1.11343 mm^2
            Peak Dynamic = 2.36434 W
            Subthreshold Leakage = 0.0299356 W
            Subthreshold Leakage with power gating = 0.0165819 W
            Gate Leakage = 0.0107484 W
            Runtime Dynamic = 0.230754 W

              Instruction Window:
                Area = 0.519531 mm^2
                Peak Dynamic = 1.01319 W
                Subthreshold Leakage = 0.0210861 W
                Subthreshold Leakage with power gating = 0.0119994 W
                Gate Leakage = 0.00784113 W
                Runtime Dynamic = 0.103229 W

              FP Instruction Window:
                Area = 0.167689 mm^2
                Peak Dynamic = 0.592068 W
                Subthreshold Leakage = 0.00447456 W
                Subthreshold Leakage with power gating = 0.00253081 W
                Gate Leakage = 0.0017016 W
                Runtime Dynamic = 0.0599176 W

              ROB:
                Area = 0.426209 mm^2
                Peak Dynamic = 0.75908 W
                Subthreshold Leakage = 0.00437495 W
                Subthreshold Leakage with power gating = 0.0020517 W
                Gate Leakage = 0.00120572 W
                Runtime Dynamic = 0.0676075 W

          Integer ALUs (Count: 6 ):
            Area = 0.329609 mm^2
            Peak Dynamic = 0.0549782 W
            Subthreshold Leakage = 0.0927722 W
            Subthreshold Leakage with power gating = 0.0313106 W
            Gate Leakage = 0.0344197 W
            Runtime Dynamic = 0.149621 W

          Floating Point Units (FPUs) (Count: 2 ):
            Area = 2.35571 mm^2
            Peak Dynamic = 0.0724871 W
            Subthreshold Leakage = 0.16576 W
            Subthreshold Leakage with power gating = 0.055944 W
            Gate Leakage = 0.0614991 W
            Runtime Dynamic = 0.325533 W

          Complex ALUs (Mul/Div) (Count: 1 ):
            Area = 0.164805 mm^2
            Peak Dynamic = 0.014542 W
            Subthreshold Leakage = 0.0463861 W
            Subthreshold Leakage with power gating = 0.0156553 W
            Gate Leakage = 0.0172098 W
            Runtime Dynamic = 0.2074 W

          Results Broadcast Bus:
            Area Overhead = 0.0245306 mm^2
            Peak Dynamic = 0.0499868 W
            Subthreshold Leakage = 0.0233657 W
            Subthreshold Leakage with power gating = 0.00788591 W
            Gate Leakage = 0.00866896 W
            Runtime Dynamic = 0.124507 W

*****************************************************************************************
L2
      Area = 4.9501 mm^2
      Peak Dynamic = 0.0441511 W
      Subthreshold Leakage = 0.244094 W
      Subthreshold Leakage with power gating = 0.118523 W
      Gate Leakage = 0.0322167 W
      Runtime Dynamic = 0.0214114 W

*****************************************************************************************
L2
      Area = 4.9501 mm^2
      Peak Dynamic = 0.0529605 W
      Subthreshold Leakage = 0.244094 W
      Subthreshold Leakage with power gating = 0.118523 W
      Gate Leakage = 0.0322167 W
      Runtime Dynamic = 0.0250078 W

*****************************************************************************************
L2
      Area = 4.9501 mm^2
      Peak Dynamic = 0.057719 W
      Subthreshold Leakage = 0.244094 W
      Subthreshold Leakage with power gating = 0.118523 W
      Gate Leakage = 0.0322167 W
      Runtime Dynamic = 0.0280908 W

*****************************************************************************************
L2
      Area = 4.9501 mm^2
      Peak Dynamic = 0.0546971 W
      Subthreshold Leakage = 0.244094 W
      Subthreshold Leakage with power gating = 0.118523 W
      Gate Leakage = 0.0322167 W
      Runtime Dynamic = 0.0262591 W

*****************************************************************************************
L2
      Area = 4.9501 mm^2
      Peak Dynamic = 0.067301 W
      Subthreshold Leakage = 0.244094 W
      Subthreshold Leakage with power gating = 0.118523 W
      Gate Leakage = 0.0322167 W
      Runtime Dynamic = 0.0322971 W

*****************************************************************************************
L2
      Area = 4.9501 mm^2
      Peak Dynamic = 0.0675087 W
      Subthreshold Leakage = 0.244094 W
      Subthreshold Leakage with power gating = 0.118523 W
      Gate Leakage = 0.0322167 W
      Runtime Dynamic = 0.0323246 W

*****************************************************************************************
L2
      Area = 4.9501 mm^2
      Peak Dynamic = 0.0659961 W
      Subthreshold Leakage = 0.244094 W
      Subthreshold Leakage with power gating = 0.118523 W
      Gate Leakage = 0.0322167 W
      Runtime Dynamic = 0.0320534 W

*****************************************************************************************
L2
      Area = 4.9501 mm^2
      Peak Dynamic = 0.0672653 W
      Subthreshold Leakage = 0.244094 W
      Subthreshold Leakage with power gating = 0.118523 W
      Gate Leakage = 0.0322167 W
      Runtime Dynamic = 0.0325117 W

*****************************************************************************************
NOC
      Area = 0.0870126 mm^2
      Peak Dynamic = 0.0902291 W
      Subthreshold Leakage = 0.00149161 W
      Subthreshold Leakage with power gating = 0.000850216 W
      Gate Leakage = 0.00102695 W
      Runtime Dynamic = 0.136874 W

      Router: 
        Area = 0.0870126 mm^2
        Peak Dynamic = 0.0902291 W
        Subthreshold Leakage = 0.00149161 W
        Subthreshold Leakage with power gating = 0.000850216 W
        Gate Leakage = 0.00102695 W
        Runtime Dynamic = 0.136874 W

            Virtual Channel Buffer:
              Area = 0.0686472 mm^2
              Peak Dynamic = 0.0681335 W
              Subthreshold Leakage = 0.000593759 W
              Subthreshold Leakage with power gating = 0.000338443 W
              Gate Leakage = 0.000325423 W
              Runtime Dynamic = 0.103356 W

            Crossbar:
              Area = 0.00429497 mm^2
              Peak Dynamic = 0.0220247 W
              Subthreshold Leakage = 0.000897736 W
              Subthreshold Leakage with power gating = 0.00051171 W
              Gate Leakage = 0.00070146 W
              Runtime Dynamic = 0.0334106 W

            Arbiter:
              Peak Dynamic = 7.09131e-05 W
              Subthreshold Leakage = 1.12342e-07 W
              Subthreshold Leakage with power gating = 0.00051171 W
              Gate Leakage = 6.39245e-08 W
              Runtime Dynamic = 0.000107572 W

*****************************************************************************************
