McPAT (version 1.0 of Aug, 2013) is computing the target processor...
 
Warning: icache array structure cannot satisfy latency constraint.
Warning: icache array structure cannot satisfy latency constraint.
Warning: icache array structure cannot satisfy latency constraint.
Warning: icache array structure cannot satisfy latency constraint.
Warning: icache array structure cannot satisfy latency constraint.
Warning: icache array structure cannot satisfy latency constraint.
Warning: icache array structure cannot satisfy latency constraint.
Warning: icache array structure cannot satisfy latency constraint.
Warning: icache array structure cannot satisfy latency constraint.
Warning: icache array structure cannot satisfy latency constraint.
Warning: icache array structure cannot satisfy latency constraint.
Warning: icache array structure cannot satisfy latency constraint.
Warning: icache array structure cannot satisfy latency constraint.
Warning: icache array structure cannot satisfy latency constraint.
Warning: icache array structure cannot satisfy latency constraint.
Warning: icache array structure cannot satisfy latency constraint.
Warning: icache array structure cannot satisfy latency constraint.
Warning: icache array structure cannot satisfy latency constraint.
Warning: icache array structure cannot satisfy latency constraint.
Warning: icache array structure cannot satisfy latency constraint.
Warning: icache array structure cannot satisfy latency constraint.
Warning: icache array structure cannot satisfy latency constraint.
Warning: icache array structure cannot satisfy latency constraint.
Warning: icache array structure cannot satisfy latency constraint.
Warning: icache array structure cannot satisfy latency constraint.
Warning: icache array structure cannot satisfy latency constraint.
Warning: icache array structure cannot satisfy latency constraint.
Warning: icache array structure cannot satisfy latency constraint.
Warning: icache array structure cannot satisfy latency constraint.
Warning: icache array structure cannot satisfy latency constraint.
Warning: icache array structure cannot satisfy latency constraint.
Warning: icache array structure cannot satisfy latency constraint.

McPAT (version 1.0 of Aug, 2013) results  (current print level is 5)
*****************************************************************************************
  Technology 32 nm
  Using Long Channel Devices When Appropriate
  Interconnect metal projection= aggressive interconnect technology projection
  Core clock Rate(MHz) 2000

*****************************************************************************************
Processor: 
  Area = 446.322 mm^2
  Peak Power = 264.318 W
  Total Leakage = 52.482 W
  Peak Dynamic = 211.836 W
  Subthreshold Leakage = 38.4433 W
  Subthreshold Leakage with power gating = 14.7915 W
  Gate Leakage = 14.0387 W
  Runtime Dynamic = 26.3534 W

  Total Cores: 32 cores 
  Device Type= ITRS high performance device type
    Area = 406.281 mm^2
    Peak Dynamic = 211.732 W
    Subthreshold Leakage = 36.6427 W
    Subthreshold Leakage with power gating = 13.807 W
    Gate Leakage = 13.7959 W
    Runtime Dynamic = 26.2912 W

  Total L2s: 
  Device Type= ITRS high performance device type
    Area = 39.9535 mm^2
    Peak Dynamic = 0.0976523 W
    Subthreshold Leakage = 1.79911 W
    Subthreshold Leakage with power gating = 0.825173 W
    Gate Leakage = 0.24175 W
    Runtime Dynamic = 0.0525589 W

  Total NoCs (Network/Bus): 
  Device Type= ITRS high performance device type
    Area = 0.0870126 mm^2
    Peak Dynamic = 0.00622388 W
    Subthreshold Leakage = 0.00149161 W
    Subthreshold Leakage with power gating = 0.000850216 W
    Gate Leakage = 0.00102695 W
    Runtime Dynamic = 0.00965346 W

*****************************************************************************************
Core:
      Area = 12.6963 mm^2
      Peak Dynamic = 6.99123 W
      Subthreshold Leakage = 1.14508 W
      Subthreshold Leakage with power gating = 0.431469 W
      Gate Leakage = 0.431123 W
      Runtime Dynamic = 0.978283 W

      Instruction Fetch Unit:
        Area = 3.04058 mm^2
        Peak Dynamic = 1.48964 W
        Subthreshold Leakage = 0.226888 W
        Subthreshold Leakage with power gating = 0.0933342 W
        Gate Leakage = 0.082348 W
        Runtime Dynamic = 0.0665051 W

          Instruction Cache:
            Area = 1.60147 mm^2
            Peak Dynamic = 0.50074 W
            Subthreshold Leakage = 0.093335 W
            Subthreshold Leakage with power gating = 0.044301 W
            Gate Leakage = 0.042566 W
            Runtime Dynamic = 0.0327815 W

          Branch Target Buffer:
            Area = 0.397072 mm^2
            Peak Dynamic = 0.0840866 W
            Subthreshold Leakage = 0.02173 W
            Subthreshold Leakage with power gating = 0.0105914 W
            Gate Leakage = 0.00551055 W
            Runtime Dynamic = 0.00265897 W

          Branch Predictor:
            Area = 0.0686002 mm^2
            Peak Dynamic = 0.0275933 W
            Subthreshold Leakage = 0.00468696 W
            Subthreshold Leakage with power gating = 0.00225328 W
            Gate Leakage = 0.00101062 W
            Runtime Dynamic = 0.000894152 W

              Global Predictor:
                Area = 0.0218979 mm^2
                Peak Dynamic = 0.0077921 W
                Subthreshold Leakage = 0.00178236 W
                Subthreshold Leakage with power gating = 0.000855551 W
                Gate Leakage = 0.000370196 W
                Runtime Dynamic = 0.000272445 W

              Local Predictor:
              L1_Local Predictor:
                Area = 0.0128884 mm^2
                Peak Dynamic = 0.00653673 W
                Subthreshold Leakage = 0.000903617 W
                Subthreshold Leakage with power gating = 0.000433877 W
                Gate Leakage = 0.000207902 W
                Runtime Dynamic = 0.000236643 W

              L2_Local Predictor:
                Area = 0.00661857 mm^2
                Peak Dynamic = 0.00333484 W
                Subthreshold Leakage = 0.000457985 W
                Subthreshold Leakage with power gating = 0.00021904 W
                Gate Leakage = 0.000109414 W
                Runtime Dynamic = 0.000120739 W

              Chooser:
                Area = 0.0218979 mm^2
                Peak Dynamic = 0.0077921 W
                Subthreshold Leakage = 0.00178236 W
                Subthreshold Leakage with power gating = 0.000855551 W
                Gate Leakage = 0.000370196 W
                Runtime Dynamic = 0.000272445 W

              RAS:
                Area = 0.00529751 mm^2
                Peak Dynamic = 0.00547237 W
                Subthreshold Leakage = 0.000218626 W
                Subthreshold Leakage with power gating = 0.000108298 W
                Gate Leakage = 6.23254e-05 W
                Runtime Dynamic = 0.000112619 W

          Instruction Buffer:
            Area = 0.0111146 mm^2
            Peak Dynamic = 0.290305 W
            Subthreshold Leakage = 0.000365712 W
            Subthreshold Leakage with power gating = 0.000153616 W
            Gate Leakage = 9.42121e-05 W
            Runtime Dynamic = 0.00768662 W

          Instruction Decoder:
            Area = 0.939544 mm^2
            Peak Dynamic = 0.566091 W
            Subthreshold Leakage = 0.102165 W
            Subthreshold Leakage with power gating = 0.0344807 W
            Gate Leakage = 0.028867 W
            Runtime Dynamic = 0.0224832 W

      Renaming Unit:
        Area = 0.187354 mm^2
        Peak Dynamic = 2.14888 W
        Subthreshold Leakage = 0.0176949 W
        Subthreshold Leakage with power gating = 0.00901078 W
        Gate Leakage = 0.0121236 W
        Runtime Dynamic = 0.0159737 W

          Int Front End RAT:
            Area = 0.0583904 mm^2
            Peak Dynamic = 0.386173 W
            Subthreshold Leakage = 0.00151853 W
            Subthreshold Leakage with power gating = 0.000865565 W
            Gate Leakage = 0.000537576 W
            Runtime Dynamic = 0.0144686 W

          FP Front End RAT:
            Area = 0.0852001 mm^2
            Peak Dynamic = 1.61287 W
            Subthreshold Leakage = 0.0114141 W
            Subthreshold Leakage with power gating = 0.00650604 W
            Gate Leakage = 0.00723124 W
            Runtime Dynamic = 1.56592e-05 W

          Free List:
            Area = 0.0209802 mm^2
            Peak Dynamic = 0.0187401 W
            Subthreshold Leakage = 0.000157165 W
            Subthreshold Leakage with power gating = 8.49701e-05 W
            Gate Leakage = 5.50825e-05 W
            Runtime Dynamic = 0.00148876 W

      Load Store Unit:
        Area = 1.98568 mm^2
        Peak Dynamic = 0.837657 W
        Subthreshold Leakage = 0.0912613 W
        Subthreshold Leakage with power gating = 0.0480116 W
        Gate Leakage = 0.0319237 W
        Runtime Dynamic = 0.0872471 W

          Data Cache:
            Area = 1.5316 mm^2
            Peak Dynamic = 0.807227 W
            Subthreshold Leakage = 0.0809419 W
            Subthreshold Leakage with power gating = 0.0432002 W
            Gate Leakage = 0.025643 W
            Runtime Dynamic = 0.0549485 W

          LoadQ:
            Area = 0.0430063 mm^2
            Peak Dynamic = 0.00897833 W
            Subthreshold Leakage = 0.00238113 W
            Subthreshold Leakage with power gating = 0.00135725 W
            Gate Leakage = 0.000855022 W
            Runtime Dynamic = 0.00897834 W

          StoreQ:
            Area = 0.0515274 mm^2
            Peak Dynamic = 0.0116598 W
            Subthreshold Leakage = 0.00333321 W
            Subthreshold Leakage with power gating = 0.00189993 W
            Gate Leakage = 0.00112608 W
            Runtime Dynamic = 0.0233197 W

      Memory Management Unit:
        Area = 0.100456 mm^2
        Peak Dynamic = 0.0871089 W
        Subthreshold Leakage = 0.0106657 W
        Subthreshold Leakage with power gating = 0.00500875 W
        Gate Leakage = 0.0062802 W
        Runtime Dynamic = 0.00901705 W

          Itlb:
            Area = 0.0319967 mm^2
            Peak Dynamic = 0.00918282 W
            Subthreshold Leakage = 0.00232604 W
            Subthreshold Leakage with power gating = 0.00132584 W
            Gate Leakage = 0.000775623 W
            Runtime Dynamic = 0.00141619 W

          Dtlb:
            Area = 0.0456762 mm^2
            Peak Dynamic = 0.00748405 W
            Subthreshold Leakage = 0.00373455 W
            Subthreshold Leakage with power gating = 0.00212869 W
            Gate Leakage = 0.00120491 W
            Runtime Dynamic = 0.00760022 W

      Execution Unit:
        Area = 4.30453 mm^2
        Peak Dynamic = 2.42795 W
        Subthreshold Leakage = 0.36545 W
        Subthreshold Leakage with power gating = 0.129924 W
        Gate Leakage = 0.137753 W
        Runtime Dynamic = 0.79954 W

          Register Files:
            Area = 0.293668 mm^2
            Peak Dynamic = 0.00800094 W
            Subthreshold Leakage = 0.00262543 W
            Subthreshold Leakage with power gating = 0.000992351 W
            Gate Leakage = 0.00090702 W
            Runtime Dynamic = 0.00927316 W

              Integer RF:
                Area = 0.186234 mm^2
                Peak Dynamic = 0.00799654 W
                Subthreshold Leakage = 0.00159167 W
                Subthreshold Leakage with power gating = 0.000581031 W
                Gate Leakage = 0.000571424 W
                Runtime Dynamic = 0.00817655 W

              Floating Point RF:
                Area = 0.107434 mm^2
                Peak Dynamic = 4.40719e-06 W
                Subthreshold Leakage = 0.00103377 W
                Subthreshold Leakage with power gating = 0.00041132 W
                Gate Leakage = 0.000335596 W
                Runtime Dynamic = 0.00109661 W

          Instruction Scheduler:
            Area = 1.11343 mm^2
            Peak Dynamic = 2.36434 W
            Subthreshold Leakage = 0.0299356 W
            Subthreshold Leakage with power gating = 0.0165819 W
            Gate Leakage = 0.0107484 W
            Runtime Dynamic = 0.116943 W

              Instruction Window:
                Area = 0.519531 mm^2
                Peak Dynamic = 1.01319 W
                Subthreshold Leakage = 0.0210861 W
                Subthreshold Leakage with power gating = 0.0119994 W
                Gate Leakage = 0.00784113 W
                Runtime Dynamic = 0.0526518 W

              FP Instruction Window:
                Area = 0.167689 mm^2
                Peak Dynamic = 0.592068 W
                Subthreshold Leakage = 0.00447456 W
                Subthreshold Leakage with power gating = 0.00253081 W
                Gate Leakage = 0.0017016 W
                Runtime Dynamic = 0.0305608 W

              ROB:
                Area = 0.426209 mm^2
                Peak Dynamic = 0.75908 W
                Subthreshold Leakage = 0.00437495 W
                Subthreshold Leakage with power gating = 0.0020517 W
                Gate Leakage = 0.00120572 W
                Runtime Dynamic = 0.0337307 W

          Integer ALUs (Count: 6 ):
            Area = 0.329609 mm^2
            Peak Dynamic = 0.033363 W
            Subthreshold Leakage = 0.0927722 W
            Subthreshold Leakage with power gating = 0.0313106 W
            Gate Leakage = 0.0344197 W
            Runtime Dynamic = 0.127167 W

          Floating Point Units (FPUs) (Count: 2 ):
            Area = 2.35571 mm^2
            Peak Dynamic = 2.77019e-05 W
            Subthreshold Leakage = 0.16576 W
            Subthreshold Leakage with power gating = 0.055944 W
            Gate Leakage = 0.0614991 W
            Runtime Dynamic = 0.296675 W

          Complex ALUs (Mul/Div) (Count: 1 ):
            Area = 0.164805 mm^2
            Peak Dynamic = 5.84886e-06 W
            Subthreshold Leakage = 0.0463861 W
            Subthreshold Leakage with power gating = 0.0156553 W
            Gate Leakage = 0.0172098 W
            Runtime Dynamic = 0.19778 W

          Results Broadcast Bus:
            Area Overhead = 0.0245306 mm^2
            Peak Dynamic = 0.0187397 W
            Subthreshold Leakage = 0.0233657 W
            Subthreshold Leakage with power gating = 0.00788591 W
            Gate Leakage = 0.00866896 W
            Runtime Dynamic = 0.0517013 W

*****************************************************************************************
Core:
      Area = 12.6963 mm^2
      Peak Dynamic = 7.10419 W
      Subthreshold Leakage = 1.14508 W
      Subthreshold Leakage with power gating = 0.431469 W
      Gate Leakage = 0.431123 W
      Runtime Dynamic = 1.06221 W

      Instruction Fetch Unit:
        Area = 3.04058 mm^2
        Peak Dynamic = 1.55144 W
        Subthreshold Leakage = 0.226888 W
        Subthreshold Leakage with power gating = 0.0933342 W
        Gate Leakage = 0.082348 W
        Runtime Dynamic = 0.0666324 W

          Instruction Cache:
            Area = 1.60147 mm^2
            Peak Dynamic = 0.560075 W
            Subthreshold Leakage = 0.093335 W
            Subthreshold Leakage with power gating = 0.044301 W
            Gate Leakage = 0.042566 W
            Runtime Dynamic = 0.0309279 W

          Branch Target Buffer:
            Area = 0.397072 mm^2
            Peak Dynamic = 0.0840866 W
            Subthreshold Leakage = 0.02173 W
            Subthreshold Leakage with power gating = 0.0105914 W
            Gate Leakage = 0.00551055 W
            Runtime Dynamic = 0.00142255 W

          Branch Predictor:
            Area = 0.0686002 mm^2
            Peak Dynamic = 0.0275933 W
            Subthreshold Leakage = 0.00468696 W
            Subthreshold Leakage with power gating = 0.00225328 W
            Gate Leakage = 0.00101062 W
            Runtime Dynamic = 0.000536423 W

              Global Predictor:
                Area = 0.0218979 mm^2
                Peak Dynamic = 0.0077921 W
                Subthreshold Leakage = 0.00178236 W
                Subthreshold Leakage with power gating = 0.000855551 W
                Gate Leakage = 0.000370196 W
                Runtime Dynamic = 0.000143323 W

              Local Predictor:
              L1_Local Predictor:
                Area = 0.0128884 mm^2
                Peak Dynamic = 0.00653673 W
                Subthreshold Leakage = 0.000903617 W
                Subthreshold Leakage with power gating = 0.000433877 W
                Gate Leakage = 0.000207902 W
                Runtime Dynamic = 0.000123804 W

              L2_Local Predictor:
                Area = 0.00661857 mm^2
                Peak Dynamic = 0.00333484 W
                Subthreshold Leakage = 0.000457985 W
                Subthreshold Leakage with power gating = 0.00021904 W
                Gate Leakage = 0.000109414 W
                Runtime Dynamic = 6.31661e-05 W

              Chooser:
                Area = 0.0218979 mm^2
                Peak Dynamic = 0.0077921 W
                Subthreshold Leakage = 0.00178236 W
                Subthreshold Leakage with power gating = 0.000855551 W
                Gate Leakage = 0.000370196 W
                Runtime Dynamic = 0.000143323 W

              RAS:
                Area = 0.00529751 mm^2
                Peak Dynamic = 0.00547237 W
                Subthreshold Leakage = 0.000218626 W
                Subthreshold Leakage with power gating = 0.000108298 W
                Gate Leakage = 6.23254e-05 W
                Runtime Dynamic = 0.000125974 W

          Instruction Buffer:
            Area = 0.0111146 mm^2
            Peak Dynamic = 0.290305 W
            Subthreshold Leakage = 0.000365712 W
            Subthreshold Leakage with power gating = 0.000153616 W
            Gate Leakage = 9.42121e-05 W
            Runtime Dynamic = 0.00859748 W

          Instruction Decoder:
            Area = 0.939544 mm^2
            Peak Dynamic = 0.566091 W
            Subthreshold Leakage = 0.102165 W
            Subthreshold Leakage with power gating = 0.0344807 W
            Gate Leakage = 0.028867 W
            Runtime Dynamic = 0.0251474 W

      Renaming Unit:
        Area = 0.187354 mm^2
        Peak Dynamic = 2.14888 W
        Subthreshold Leakage = 0.0176949 W
        Subthreshold Leakage with power gating = 0.00901078 W
        Gate Leakage = 0.0121236 W
        Runtime Dynamic = 0.0439968 W

          Int Front End RAT:
            Area = 0.0583904 mm^2
            Peak Dynamic = 0.386173 W
            Subthreshold Leakage = 0.00151853 W
            Subthreshold Leakage with power gating = 0.000865565 W
            Gate Leakage = 0.000537576 W
            Runtime Dynamic = 0.0157973 W

          FP Front End RAT:
            Area = 0.0852001 mm^2
            Peak Dynamic = 1.61287 W
            Subthreshold Leakage = 0.0114141 W
            Subthreshold Leakage with power gating = 0.00650604 W
            Gate Leakage = 0.00723124 W
            Runtime Dynamic = 0.0262291 W

          Free List:
            Area = 0.0209802 mm^2
            Peak Dynamic = 0.0187401 W
            Subthreshold Leakage = 0.000157165 W
            Subthreshold Leakage with power gating = 8.49701e-05 W
            Gate Leakage = 5.50825e-05 W
            Runtime Dynamic = 0.00196974 W

      Load Store Unit:
        Area = 1.98568 mm^2
        Peak Dynamic = 0.803015 W
        Subthreshold Leakage = 0.0912613 W
        Subthreshold Leakage with power gating = 0.0480116 W
        Gate Leakage = 0.0319237 W
        Runtime Dynamic = 0.0714416 W

          Data Cache:
            Area = 1.5316 mm^2
            Peak Dynamic = 0.777223 W
            Subthreshold Leakage = 0.0809419 W
            Subthreshold Leakage with power gating = 0.0432002 W
            Gate Leakage = 0.025643 W
            Runtime Dynamic = 0.044067 W

          LoadQ:
            Area = 0.0430063 mm^2
            Peak Dynamic = 0.00760946 W
            Subthreshold Leakage = 0.00238113 W
            Subthreshold Leakage with power gating = 0.00135725 W
            Gate Leakage = 0.000855022 W
            Runtime Dynamic = 0.00760954 W

          StoreQ:
            Area = 0.0515274 mm^2
            Peak Dynamic = 0.00988212 W
            Subthreshold Leakage = 0.00333321 W
            Subthreshold Leakage with power gating = 0.00189993 W
            Gate Leakage = 0.00112608 W
            Runtime Dynamic = 0.0197644 W

      Memory Management Unit:
        Area = 0.100456 mm^2
        Peak Dynamic = 0.0863095 W
        Subthreshold Leakage = 0.0106657 W
        Subthreshold Leakage with power gating = 0.00500875 W
        Gate Leakage = 0.0062802 W
        Runtime Dynamic = 0.0078055 W

          Itlb:
            Area = 0.0319967 mm^2
            Peak Dynamic = 0.010271 W
            Subthreshold Leakage = 0.00232604 W
            Subthreshold Leakage with power gating = 0.00132584 W
            Gate Leakage = 0.000775623 W
            Runtime Dynamic = 0.00141147 W

          Dtlb:
            Area = 0.0456762 mm^2
            Peak Dynamic = 0.00634301 W
            Subthreshold Leakage = 0.00373455 W
            Subthreshold Leakage with power gating = 0.00212869 W
            Gate Leakage = 0.00120491 W
            Runtime Dynamic = 0.00639339 W

      Execution Unit:
        Area = 4.30453 mm^2
        Peak Dynamic = 2.51454 W
        Subthreshold Leakage = 0.36545 W
        Subthreshold Leakage with power gating = 0.129924 W
        Gate Leakage = 0.137753 W
        Runtime Dynamic = 0.872329 W

          Register Files:
            Area = 0.293668 mm^2
            Peak Dynamic = 0.0211127 W
            Subthreshold Leakage = 0.00262543 W
            Subthreshold Leakage with power gating = 0.000992351 W
            Gate Leakage = 0.00090702 W
            Runtime Dynamic = 0.0103722 W

              Integer RF:
                Area = 0.186234 mm^2
                Peak Dynamic = 0.0135683 W
                Subthreshold Leakage = 0.00159167 W
                Subthreshold Leakage with power gating = 0.000581031 W
                Gate Leakage = 0.000571424 W
                Runtime Dynamic = 0.00914554 W

              Floating Point RF:
                Area = 0.107434 mm^2
                Peak Dynamic = 0.00754441 W
                Subthreshold Leakage = 0.00103377 W
                Subthreshold Leakage with power gating = 0.00041132 W
                Gate Leakage = 0.000335596 W
                Runtime Dynamic = 0.00122664 W

          Instruction Scheduler:
            Area = 1.11343 mm^2
            Peak Dynamic = 2.36434 W
            Subthreshold Leakage = 0.0299356 W
            Subthreshold Leakage with power gating = 0.0165819 W
            Gate Leakage = 0.0107484 W
            Runtime Dynamic = 0.132101 W

              Instruction Window:
                Area = 0.519531 mm^2
                Peak Dynamic = 1.01319 W
                Subthreshold Leakage = 0.0210861 W
                Subthreshold Leakage with power gating = 0.0119994 W
                Gate Leakage = 0.00784113 W
                Runtime Dynamic = 0.058891 W

              FP Instruction Window:
                Area = 0.167689 mm^2
                Peak Dynamic = 0.592068 W
                Subthreshold Leakage = 0.00447456 W
                Subthreshold Leakage with power gating = 0.00253081 W
                Gate Leakage = 0.0017016 W
                Runtime Dynamic = 0.0341823 W

              ROB:
                Area = 0.426209 mm^2
                Peak Dynamic = 0.75908 W
                Subthreshold Leakage = 0.00437495 W
                Subthreshold Leakage with power gating = 0.0020517 W
                Gate Leakage = 0.00120572 W
                Runtime Dynamic = 0.0390278 W

          Integer ALUs (Count: 6 ):
            Area = 0.329609 mm^2
            Peak Dynamic = 0.0304897 W
            Subthreshold Leakage = 0.0927722 W
            Subthreshold Leakage with power gating = 0.0313106 W
            Gate Leakage = 0.0344197 W
            Runtime Dynamic = 0.129124 W

          Floating Point Units (FPUs) (Count: 2 ):
            Area = 2.35571 mm^2
            Peak Dynamic = 0.0474212 W
            Subthreshold Leakage = 0.16576 W
            Subthreshold Leakage with power gating = 0.055944 W
            Gate Leakage = 0.0614991 W
            Runtime Dynamic = 0.31555 W

          Complex ALUs (Mul/Div) (Count: 1 ):
            Area = 0.164805 mm^2
            Peak Dynamic = 0.0133448 W
            Subthreshold Leakage = 0.0463861 W
            Subthreshold Leakage with power gating = 0.0156553 W
            Gate Leakage = 0.0172098 W
            Runtime Dynamic = 0.206608 W

          Results Broadcast Bus:
            Area Overhead = 0.0245306 mm^2
            Peak Dynamic = 0.0346634 W
            Subthreshold Leakage = 0.0233657 W
            Subthreshold Leakage with power gating = 0.00788591 W
            Gate Leakage = 0.00866896 W
            Runtime Dynamic = 0.078573 W

*****************************************************************************************
Core:
      Area = 12.6963 mm^2
      Peak Dynamic = 7.08295 W
      Subthreshold Leakage = 1.14508 W
      Subthreshold Leakage with power gating = 0.431469 W
      Gate Leakage = 0.431123 W
      Runtime Dynamic = 1.05378 W

      Instruction Fetch Unit:
        Area = 3.04058 mm^2
        Peak Dynamic = 1.53467 W
        Subthreshold Leakage = 0.226888 W
        Subthreshold Leakage with power gating = 0.0933342 W
        Gate Leakage = 0.082348 W
        Runtime Dynamic = 0.0647457 W

          Instruction Cache:
            Area = 1.60147 mm^2
            Peak Dynamic = 0.543966 W
            Subthreshold Leakage = 0.093335 W
            Subthreshold Leakage with power gating = 0.044301 W
            Gate Leakage = 0.042566 W
            Runtime Dynamic = 0.0301685 W

          Branch Target Buffer:
            Area = 0.397072 mm^2
            Peak Dynamic = 0.0840866 W
            Subthreshold Leakage = 0.02173 W
            Subthreshold Leakage with power gating = 0.0105914 W
            Gate Leakage = 0.00551055 W
            Runtime Dynamic = 0.00130418 W

          Branch Predictor:
            Area = 0.0686002 mm^2
            Peak Dynamic = 0.0275933 W
            Subthreshold Leakage = 0.00468696 W
            Subthreshold Leakage with power gating = 0.00225328 W
            Gate Leakage = 0.00101062 W
            Runtime Dynamic = 0.000498276 W

              Global Predictor:
                Area = 0.0218979 mm^2
                Peak Dynamic = 0.0077921 W
                Subthreshold Leakage = 0.00178236 W
                Subthreshold Leakage with power gating = 0.000855551 W
                Gate Leakage = 0.000370196 W
                Runtime Dynamic = 0.000131287 W

              Local Predictor:
              L1_Local Predictor:
                Area = 0.0128884 mm^2
                Peak Dynamic = 0.00653673 W
                Subthreshold Leakage = 0.000903617 W
                Subthreshold Leakage with power gating = 0.000433877 W
                Gate Leakage = 0.000207902 W
                Runtime Dynamic = 0.000113377 W

              L2_Local Predictor:
                Area = 0.00661857 mm^2
                Peak Dynamic = 0.00333484 W
                Subthreshold Leakage = 0.000457985 W
                Subthreshold Leakage with power gating = 0.00021904 W
                Gate Leakage = 0.000109414 W
                Runtime Dynamic = 5.78458e-05 W

              Chooser:
                Area = 0.0218979 mm^2
                Peak Dynamic = 0.0077921 W
                Subthreshold Leakage = 0.00178236 W
                Subthreshold Leakage with power gating = 0.000855551 W
                Gate Leakage = 0.000370196 W
                Runtime Dynamic = 0.000131287 W

              RAS:
                Area = 0.00529751 mm^2
                Peak Dynamic = 0.00547237 W
                Subthreshold Leakage = 0.000218626 W
                Subthreshold Leakage with power gating = 0.000108298 W
                Gate Leakage = 6.23254e-05 W
                Runtime Dynamic = 0.000122325 W

          Instruction Buffer:
            Area = 0.0111146 mm^2
            Peak Dynamic = 0.290305 W
            Subthreshold Leakage = 0.000365712 W
            Subthreshold Leakage with power gating = 0.000153616 W
            Gate Leakage = 9.42121e-05 W
            Runtime Dynamic = 0.00835015 W

          Instruction Decoder:
            Area = 0.939544 mm^2
            Peak Dynamic = 0.566091 W
            Subthreshold Leakage = 0.102165 W
            Subthreshold Leakage with power gating = 0.0344807 W
            Gate Leakage = 0.028867 W
            Runtime Dynamic = 0.024424 W

      Renaming Unit:
        Area = 0.187354 mm^2
        Peak Dynamic = 2.14888 W
        Subthreshold Leakage = 0.0176949 W
        Subthreshold Leakage with power gating = 0.00901078 W
        Gate Leakage = 0.0121236 W
        Runtime Dynamic = 0.0442594 W

          Int Front End RAT:
            Area = 0.0583904 mm^2
            Peak Dynamic = 0.386173 W
            Subthreshold Leakage = 0.00151853 W
            Subthreshold Leakage with power gating = 0.000865565 W
            Gate Leakage = 0.000537576 W
            Runtime Dynamic = 0.0153158 W

          FP Front End RAT:
            Area = 0.0852001 mm^2
            Peak Dynamic = 1.61287 W
            Subthreshold Leakage = 0.0114141 W
            Subthreshold Leakage with power gating = 0.00650604 W
            Gate Leakage = 0.00723124 W
            Runtime Dynamic = 0.0270121 W

          Free List:
            Area = 0.0209802 mm^2
            Peak Dynamic = 0.0187401 W
            Subthreshold Leakage = 0.000157165 W
            Subthreshold Leakage with power gating = 8.49701e-05 W
            Gate Leakage = 5.50825e-05 W
            Runtime Dynamic = 0.00193094 W

      Load Store Unit:
        Area = 1.98568 mm^2
        Peak Dynamic = 0.799812 W
        Subthreshold Leakage = 0.0912613 W
        Subthreshold Leakage with power gating = 0.0480116 W
        Gate Leakage = 0.0319237 W
        Runtime Dynamic = 0.070255 W

          Data Cache:
            Area = 1.5316 mm^2
            Peak Dynamic = 0.774449 W
            Subthreshold Leakage = 0.0809419 W
            Subthreshold Leakage with power gating = 0.0432002 W
            Gate Leakage = 0.025643 W
            Runtime Dynamic = 0.0433359 W

          LoadQ:
            Area = 0.0430063 mm^2
            Peak Dynamic = 0.0074829 W
            Subthreshold Leakage = 0.00238113 W
            Subthreshold Leakage with power gating = 0.00135725 W
            Gate Leakage = 0.000855022 W
            Runtime Dynamic = 0.00748293 W

          StoreQ:
            Area = 0.0515274 mm^2
            Peak Dynamic = 0.00971776 W
            Subthreshold Leakage = 0.00333321 W
            Subthreshold Leakage with power gating = 0.00189993 W
            Gate Leakage = 0.00112608 W
            Runtime Dynamic = 0.0194356 W

      Memory Management Unit:
        Area = 0.100456 mm^2
        Peak Dynamic = 0.0858395 W
        Subthreshold Leakage = 0.0106657 W
        Subthreshold Leakage with power gating = 0.00500875 W
        Gate Leakage = 0.0062802 W
        Runtime Dynamic = 0.00766439 W

          Itlb:
            Area = 0.0319967 mm^2
            Peak Dynamic = 0.00997552 W
            Subthreshold Leakage = 0.00232604 W
            Subthreshold Leakage with power gating = 0.00132584 W
            Gate Leakage = 0.000775623 W
            Runtime Dynamic = 0.00137752 W

          Dtlb:
            Area = 0.0456762 mm^2
            Peak Dynamic = 0.00623751 W
            Subthreshold Leakage = 0.00373455 W
            Subthreshold Leakage with power gating = 0.00212869 W
            Gate Leakage = 0.00120491 W
            Runtime Dynamic = 0.00628623 W

      Execution Unit:
        Area = 4.30453 mm^2
        Peak Dynamic = 2.51375 W
        Subthreshold Leakage = 0.36545 W
        Subthreshold Leakage with power gating = 0.129924 W
        Gate Leakage = 0.137753 W
        Runtime Dynamic = 0.866857 W

          Register Files:
            Area = 0.293668 mm^2
            Peak Dynamic = 0.0210321 W
            Subthreshold Leakage = 0.00262543 W
            Subthreshold Leakage with power gating = 0.000992351 W
            Gate Leakage = 0.00090702 W
            Runtime Dynamic = 0.0100736 W

              Integer RF:
                Area = 0.186234 mm^2
                Peak Dynamic = 0.0132624 W
                Subthreshold Leakage = 0.00159167 W
                Subthreshold Leakage with power gating = 0.000581031 W
                Gate Leakage = 0.000571424 W
                Runtime Dynamic = 0.00888236 W

              Floating Point RF:
                Area = 0.107434 mm^2
                Peak Dynamic = 0.00776964 W
                Subthreshold Leakage = 0.00103377 W
                Subthreshold Leakage with power gating = 0.00041132 W
                Gate Leakage = 0.000335596 W
                Runtime Dynamic = 0.00119125 W

          Instruction Scheduler:
            Area = 1.11343 mm^2
            Peak Dynamic = 2.36434 W
            Subthreshold Leakage = 0.0299356 W
            Subthreshold Leakage with power gating = 0.0165819 W
            Gate Leakage = 0.0107484 W
            Runtime Dynamic = 0.128462 W

              Instruction Window:
                Area = 0.519531 mm^2
                Peak Dynamic = 1.01319 W
                Subthreshold Leakage = 0.0210861 W
                Subthreshold Leakage with power gating = 0.0119994 W
                Gate Leakage = 0.00784113 W
                Runtime Dynamic = 0.0571969 W

              FP Instruction Window:
                Area = 0.167689 mm^2
                Peak Dynamic = 0.592068 W
                Subthreshold Leakage = 0.00447456 W
                Subthreshold Leakage with power gating = 0.00253081 W
                Gate Leakage = 0.0017016 W
                Runtime Dynamic = 0.0331984 W

              ROB:
                Area = 0.426209 mm^2
                Peak Dynamic = 0.75908 W
                Subthreshold Leakage = 0.00437495 W
                Subthreshold Leakage with power gating = 0.0020517 W
                Gate Leakage = 0.00120572 W
                Runtime Dynamic = 0.038067 W

          Integer ALUs (Count: 6 ):
            Area = 0.329609 mm^2
            Peak Dynamic = 0.0292131 W
            Subthreshold Leakage = 0.0927722 W
            Subthreshold Leakage with power gating = 0.0313106 W
            Gate Leakage = 0.0344197 W
            Runtime Dynamic = 0.128229 W

          Floating Point Units (FPUs) (Count: 2 ):
            Area = 2.35571 mm^2
            Peak Dynamic = 0.0488369 W
            Subthreshold Leakage = 0.16576 W
            Subthreshold Leakage with power gating = 0.055944 W
            Gate Leakage = 0.0614991 W
            Runtime Dynamic = 0.316113 W

          Complex ALUs (Mul/Div) (Count: 1 ):
            Area = 0.164805 mm^2
            Peak Dynamic = 0.0133448 W
            Subthreshold Leakage = 0.0463861 W
            Subthreshold Leakage with power gating = 0.0156553 W
            Gate Leakage = 0.0172098 W
            Runtime Dynamic = 0.206608 W

          Results Broadcast Bus:
            Area Overhead = 0.0245306 mm^2
            Peak Dynamic = 0.0339466 W
            Subthreshold Leakage = 0.0233657 W
            Subthreshold Leakage with power gating = 0.00788591 W
            Gate Leakage = 0.00866896 W
            Runtime Dynamic = 0.0773701 W

*****************************************************************************************
Core:
      Area = 12.6963 mm^2
      Peak Dynamic = 7.01548 W
      Subthreshold Leakage = 1.14508 W
      Subthreshold Leakage with power gating = 0.431469 W
      Gate Leakage = 0.431123 W
      Runtime Dynamic = 1.02196 W

      Instruction Fetch Unit:
        Area = 3.04058 mm^2
        Peak Dynamic = 1.4894 W
        Subthreshold Leakage = 0.226888 W
        Subthreshold Leakage with power gating = 0.0933342 W
        Gate Leakage = 0.082348 W
        Runtime Dynamic = 0.0610188 W

          Instruction Cache:
            Area = 1.60147 mm^2
            Peak Dynamic = 0.50051 W
            Subthreshold Leakage = 0.093335 W
            Subthreshold Leakage with power gating = 0.044301 W
            Gate Leakage = 0.042566 W
            Runtime Dynamic = 0.0291119 W

          Branch Target Buffer:
            Area = 0.397072 mm^2
            Peak Dynamic = 0.0840866 W
            Subthreshold Leakage = 0.02173 W
            Subthreshold Leakage with power gating = 0.0105914 W
            Gate Leakage = 0.00551055 W
            Runtime Dynamic = 0.00127071 W

          Branch Predictor:
            Area = 0.0686002 mm^2
            Peak Dynamic = 0.0275933 W
            Subthreshold Leakage = 0.00468696 W
            Subthreshold Leakage with power gating = 0.00225328 W
            Gate Leakage = 0.00101062 W
            Runtime Dynamic = 0.000479511 W

              Global Predictor:
                Area = 0.0218979 mm^2
                Peak Dynamic = 0.0077921 W
                Subthreshold Leakage = 0.00178236 W
                Subthreshold Leakage with power gating = 0.000855551 W
                Gate Leakage = 0.000370196 W
                Runtime Dynamic = 0.000128127 W

              Local Predictor:
              L1_Local Predictor:
                Area = 0.0128884 mm^2
                Peak Dynamic = 0.00653673 W
                Subthreshold Leakage = 0.000903617 W
                Subthreshold Leakage with power gating = 0.000433877 W
                Gate Leakage = 0.000207902 W
                Runtime Dynamic = 0.000110707 W

              L2_Local Predictor:
                Area = 0.00661857 mm^2
                Peak Dynamic = 0.00333484 W
                Subthreshold Leakage = 0.000457985 W
                Subthreshold Leakage with power gating = 0.00021904 W
                Gate Leakage = 0.000109414 W
                Runtime Dynamic = 5.64839e-05 W

              Chooser:
                Area = 0.0218979 mm^2
                Peak Dynamic = 0.0077921 W
                Subthreshold Leakage = 0.00178236 W
                Subthreshold Leakage with power gating = 0.000855551 W
                Gate Leakage = 0.000370196 W
                Runtime Dynamic = 0.000128127 W

              RAS:
                Area = 0.00529751 mm^2
                Peak Dynamic = 0.00547237 W
                Subthreshold Leakage = 0.000218626 W
                Subthreshold Leakage with power gating = 0.000108298 W
                Gate Leakage = 6.23254e-05 W
                Runtime Dynamic = 0.00011255 W

          Instruction Buffer:
            Area = 0.0111146 mm^2
            Peak Dynamic = 0.290305 W
            Subthreshold Leakage = 0.000365712 W
            Subthreshold Leakage with power gating = 0.000153616 W
            Gate Leakage = 9.42121e-05 W
            Runtime Dynamic = 0.0076831 W

          Instruction Decoder:
            Area = 0.939544 mm^2
            Peak Dynamic = 0.566091 W
            Subthreshold Leakage = 0.102165 W
            Subthreshold Leakage with power gating = 0.0344807 W
            Gate Leakage = 0.028867 W
            Runtime Dynamic = 0.0224729 W

      Renaming Unit:
        Area = 0.187354 mm^2
        Peak Dynamic = 2.14888 W
        Subthreshold Leakage = 0.0176949 W
        Subthreshold Leakage with power gating = 0.00901078 W
        Gate Leakage = 0.0121236 W
        Runtime Dynamic = 0.0420448 W

          Int Front End RAT:
            Area = 0.0583904 mm^2
            Peak Dynamic = 0.386173 W
            Subthreshold Leakage = 0.00151853 W
            Subthreshold Leakage with power gating = 0.000865565 W
            Gate Leakage = 0.000537576 W
            Runtime Dynamic = 0.0140224 W

          FP Front End RAT:
            Area = 0.0852001 mm^2
            Peak Dynamic = 1.61287 W
            Subthreshold Leakage = 0.0114141 W
            Subthreshold Leakage with power gating = 0.00650604 W
            Gate Leakage = 0.00723124 W
            Runtime Dynamic = 0.0262291 W

          Free List:
            Area = 0.0209802 mm^2
            Peak Dynamic = 0.0187401 W
            Subthreshold Leakage = 0.000157165 W
            Subthreshold Leakage with power gating = 8.49701e-05 W
            Gate Leakage = 5.50825e-05 W
            Runtime Dynamic = 0.00179266 W

      Load Store Unit:
        Area = 1.98568 mm^2
        Peak Dynamic = 0.786683 W
        Subthreshold Leakage = 0.0912613 W
        Subthreshold Leakage with power gating = 0.0480116 W
        Gate Leakage = 0.0319237 W
        Runtime Dynamic = 0.0654968 W

          Data Cache:
            Area = 1.5316 mm^2
            Peak Dynamic = 0.763079 W
            Subthreshold Leakage = 0.0809419 W
            Subthreshold Leakage with power gating = 0.0432002 W
            Gate Leakage = 0.025643 W
            Runtime Dynamic = 0.0404436 W

          LoadQ:
            Area = 0.0430063 mm^2
            Peak Dynamic = 0.00696415 W
            Subthreshold Leakage = 0.00238113 W
            Subthreshold Leakage with power gating = 0.00135725 W
            Gate Leakage = 0.000855022 W
            Runtime Dynamic = 0.00696423 W

          StoreQ:
            Area = 0.0515274 mm^2
            Peak Dynamic = 0.00904408 W
            Subthreshold Leakage = 0.00333321 W
            Subthreshold Leakage with power gating = 0.00189993 W
            Gate Leakage = 0.00112608 W
            Runtime Dynamic = 0.0180883 W

      Memory Management Unit:
        Area = 0.100456 mm^2
        Peak Dynamic = 0.0843273 W
        Subthreshold Leakage = 0.0106657 W
        Subthreshold Leakage with power gating = 0.00500875 W
        Gate Leakage = 0.0062802 W
        Runtime Dynamic = 0.00717726 W

          Itlb:
            Area = 0.0319967 mm^2
            Peak Dynamic = 0.0091786 W
            Subthreshold Leakage = 0.00232604 W
            Subthreshold Leakage with power gating = 0.00132584 W
            Gate Leakage = 0.000775623 W
            Runtime Dynamic = 0.00132421 W

          Dtlb:
            Area = 0.0456762 mm^2
            Peak Dynamic = 0.0058051 W
            Subthreshold Leakage = 0.00373455 W
            Subthreshold Leakage with power gating = 0.00212869 W
            Gate Leakage = 0.00120491 W
            Runtime Dynamic = 0.00585242 W

      Execution Unit:
        Area = 4.30453 mm^2
        Peak Dynamic = 2.50619 W
        Subthreshold Leakage = 0.36545 W
        Subthreshold Leakage with power gating = 0.129924 W
        Gate Leakage = 0.137753 W
        Runtime Dynamic = 0.846224 W

          Register Files:
            Area = 0.293668 mm^2
            Peak Dynamic = 0.0200285 W
            Subthreshold Leakage = 0.00262543 W
            Subthreshold Leakage with power gating = 0.000992351 W
            Gate Leakage = 0.00090702 W
            Runtime Dynamic = 0.00926886 W

              Integer RF:
                Area = 0.186234 mm^2
                Peak Dynamic = 0.0124841 W
                Subthreshold Leakage = 0.00159167 W
                Subthreshold Leakage with power gating = 0.000581031 W
                Gate Leakage = 0.000571424 W
                Runtime Dynamic = 0.00817279 W

              Floating Point RF:
                Area = 0.107434 mm^2
                Peak Dynamic = 0.00754441 W
                Subthreshold Leakage = 0.00103377 W
                Subthreshold Leakage with power gating = 0.00041132 W
                Gate Leakage = 0.000335596 W
                Runtime Dynamic = 0.00109608 W

          Instruction Scheduler:
            Area = 1.11343 mm^2
            Peak Dynamic = 2.36434 W
            Subthreshold Leakage = 0.0299356 W
            Subthreshold Leakage with power gating = 0.0165819 W
            Gate Leakage = 0.0107484 W
            Runtime Dynamic = 0.118156 W

              Instruction Window:
                Area = 0.519531 mm^2
                Peak Dynamic = 1.01319 W
                Subthreshold Leakage = 0.0210861 W
                Subthreshold Leakage with power gating = 0.0119994 W
                Gate Leakage = 0.00784113 W
                Runtime Dynamic = 0.0526277 W

              FP Instruction Window:
                Area = 0.167689 mm^2
                Peak Dynamic = 0.592068 W
                Subthreshold Leakage = 0.00447456 W
                Subthreshold Leakage with power gating = 0.00253081 W
                Gate Leakage = 0.0017016 W
                Runtime Dynamic = 0.0305463 W

              ROB:
                Area = 0.426209 mm^2
                Peak Dynamic = 0.75908 W
                Subthreshold Leakage = 0.00437495 W
                Subthreshold Leakage with power gating = 0.0020517 W
                Gate Leakage = 0.00120572 W
                Runtime Dynamic = 0.0349818 W

          Integer ALUs (Count: 6 ):
            Area = 0.329609 mm^2
            Peak Dynamic = 0.0265213 W
            Subthreshold Leakage = 0.0927722 W
            Subthreshold Leakage with power gating = 0.0313106 W
            Gate Leakage = 0.0344197 W
            Runtime Dynamic = 0.125347 W

          Floating Point Units (FPUs) (Count: 2 ):
            Area = 2.35571 mm^2
            Peak Dynamic = 0.0474212 W
            Subthreshold Leakage = 0.16576 W
            Subthreshold Leakage with power gating = 0.055944 W
            Gate Leakage = 0.0614991 W
            Runtime Dynamic = 0.31555 W

          Complex ALUs (Mul/Div) (Count: 1 ):
            Area = 0.164805 mm^2
            Peak Dynamic = 0.0130605 W
            Subthreshold Leakage = 0.0463861 W
            Subthreshold Leakage with power gating = 0.0156553 W
            Gate Leakage = 0.0172098 W
            Runtime Dynamic = 0.20642 W

          Results Broadcast Bus:
            Area Overhead = 0.0245306 mm^2
            Peak Dynamic = 0.0320616 W
            Subthreshold Leakage = 0.0233657 W
            Subthreshold Leakage with power gating = 0.00788591 W
            Gate Leakage = 0.00866896 W
            Runtime Dynamic = 0.0714823 W

*****************************************************************************************
Core:
      Area = 12.6963 mm^2
      Peak Dynamic = 6.98196 W
      Subthreshold Leakage = 1.14508 W
      Subthreshold Leakage with power gating = 0.431469 W
      Gate Leakage = 0.431123 W
      Runtime Dynamic = 1.00608 W

      Instruction Fetch Unit:
        Area = 3.04058 mm^2
        Peak Dynamic = 1.46959 W
        Subthreshold Leakage = 0.226888 W
        Subthreshold Leakage with power gating = 0.0933342 W
        Gate Leakage = 0.082348 W
        Runtime Dynamic = 0.0590379 W

          Instruction Cache:
            Area = 1.60147 mm^2
            Peak Dynamic = 0.481491 W
            Subthreshold Leakage = 0.093335 W
            Subthreshold Leakage with power gating = 0.044301 W
            Gate Leakage = 0.042566 W
            Runtime Dynamic = 0.0283303 W

          Branch Target Buffer:
            Area = 0.397072 mm^2
            Peak Dynamic = 0.0840866 W
            Subthreshold Leakage = 0.02173 W
            Subthreshold Leakage with power gating = 0.0105914 W
            Gate Leakage = 0.00551055 W
            Runtime Dynamic = 0.00123315 W

          Branch Predictor:
            Area = 0.0686002 mm^2
            Peak Dynamic = 0.0275933 W
            Subthreshold Leakage = 0.00468696 W
            Subthreshold Leakage with power gating = 0.00225328 W
            Gate Leakage = 0.00101062 W
            Runtime Dynamic = 0.000463668 W

              Global Predictor:
                Area = 0.0218979 mm^2
                Peak Dynamic = 0.0077921 W
                Subthreshold Leakage = 0.00178236 W
                Subthreshold Leakage with power gating = 0.000855551 W
                Gate Leakage = 0.000370196 W
                Runtime Dynamic = 0.000124108 W

              Local Predictor:
              L1_Local Predictor:
                Area = 0.0128884 mm^2
                Peak Dynamic = 0.00653673 W
                Subthreshold Leakage = 0.000903617 W
                Subthreshold Leakage with power gating = 0.000433877 W
                Gate Leakage = 0.000207902 W
                Runtime Dynamic = 0.000107169 W

              L2_Local Predictor:
                Area = 0.00661857 mm^2
                Peak Dynamic = 0.00333484 W
                Subthreshold Leakage = 0.000457985 W
                Subthreshold Leakage with power gating = 0.00021904 W
                Gate Leakage = 0.000109414 W
                Runtime Dynamic = 5.46786e-05 W

              Chooser:
                Area = 0.0218979 mm^2
                Peak Dynamic = 0.0077921 W
                Subthreshold Leakage = 0.00178236 W
                Subthreshold Leakage with power gating = 0.000855551 W
                Gate Leakage = 0.000370196 W
                Runtime Dynamic = 0.000124108 W

              RAS:
                Area = 0.00529751 mm^2
                Peak Dynamic = 0.00547237 W
                Subthreshold Leakage = 0.000218626 W
                Subthreshold Leakage with power gating = 0.000108298 W
                Gate Leakage = 6.23254e-05 W
                Runtime Dynamic = 0.000108282 W

          Instruction Buffer:
            Area = 0.0111146 mm^2
            Peak Dynamic = 0.290305 W
            Subthreshold Leakage = 0.000365712 W
            Subthreshold Leakage with power gating = 0.000153616 W
            Gate Leakage = 9.42121e-05 W
            Runtime Dynamic = 0.00739114 W

          Instruction Decoder:
            Area = 0.939544 mm^2
            Peak Dynamic = 0.566091 W
            Subthreshold Leakage = 0.102165 W
            Subthreshold Leakage with power gating = 0.0344807 W
            Gate Leakage = 0.028867 W
            Runtime Dynamic = 0.0216189 W

      Renaming Unit:
        Area = 0.187354 mm^2
        Peak Dynamic = 2.14888 W
        Subthreshold Leakage = 0.0176949 W
        Subthreshold Leakage with power gating = 0.00901078 W
        Gate Leakage = 0.0121236 W
        Runtime Dynamic = 0.0406526 W

          Int Front End RAT:
            Area = 0.0583904 mm^2
            Peak Dynamic = 0.386173 W
            Subthreshold Leakage = 0.00151853 W
            Subthreshold Leakage with power gating = 0.000865565 W
            Gate Leakage = 0.000537576 W
            Runtime Dynamic = 0.0134787 W

          FP Front End RAT:
            Area = 0.0852001 mm^2
            Peak Dynamic = 1.61287 W
            Subthreshold Leakage = 0.0114141 W
            Subthreshold Leakage with power gating = 0.00650604 W
            Gate Leakage = 0.00723124 W
            Runtime Dynamic = 0.0254462 W

          Free List:
            Area = 0.0209802 mm^2
            Peak Dynamic = 0.0187401 W
            Subthreshold Leakage = 0.000157165 W
            Subthreshold Leakage with power gating = 8.49701e-05 W
            Gate Leakage = 5.50825e-05 W
            Runtime Dynamic = 0.00172702 W

      Load Store Unit:
        Area = 1.98568 mm^2
        Peak Dynamic = 0.777485 W
        Subthreshold Leakage = 0.0912613 W
        Subthreshold Leakage with power gating = 0.0480116 W
        Gate Leakage = 0.0319237 W
        Runtime Dynamic = 0.0622155 W

          Data Cache:
            Area = 1.5316 mm^2
            Peak Dynamic = 0.755113 W
            Subthreshold Leakage = 0.0809419 W
            Subthreshold Leakage with power gating = 0.0432002 W
            Gate Leakage = 0.025643 W
            Runtime Dynamic = 0.0384699 W

          LoadQ:
            Area = 0.0430063 mm^2
            Peak Dynamic = 0.00660069 W
            Subthreshold Leakage = 0.00238113 W
            Subthreshold Leakage with power gating = 0.00135725 W
            Gate Leakage = 0.000855022 W
            Runtime Dynamic = 0.00660073 W

          StoreQ:
            Area = 0.0515274 mm^2
            Peak Dynamic = 0.00857207 W
            Subthreshold Leakage = 0.00333321 W
            Subthreshold Leakage with power gating = 0.00189993 W
            Gate Leakage = 0.00112608 W
            Runtime Dynamic = 0.0171442 W

      Memory Management Unit:
        Area = 0.100456 mm^2
        Peak Dynamic = 0.0834773 W
        Subthreshold Leakage = 0.0106657 W
        Subthreshold Leakage with power gating = 0.00500875 W
        Gate Leakage = 0.0062802 W
        Runtime Dynamic = 0.00683822 W

          Itlb:
            Area = 0.0319967 mm^2
            Peak Dynamic = 0.00882982 W
            Subthreshold Leakage = 0.00232604 W
            Subthreshold Leakage with power gating = 0.00132584 W
            Gate Leakage = 0.000775623 W
            Runtime Dynamic = 0.00128997 W

          Dtlb:
            Area = 0.0456762 mm^2
            Peak Dynamic = 0.00550213 W
            Subthreshold Leakage = 0.00373455 W
            Subthreshold Leakage with power gating = 0.00212869 W
            Gate Leakage = 0.00120491 W
            Runtime Dynamic = 0.00554761 W

      Execution Unit:
        Area = 4.30453 mm^2
        Peak Dynamic = 2.50252 W
        Subthreshold Leakage = 0.36545 W
        Subthreshold Leakage with power gating = 0.129924 W
        Gate Leakage = 0.137753 W
        Runtime Dynamic = 0.837334 W

          Register Files:
            Area = 0.293668 mm^2
            Peak Dynamic = 0.0195484 W
            Subthreshold Leakage = 0.00262543 W
            Subthreshold Leakage with power gating = 0.000992351 W
            Gate Leakage = 0.00090702 W
            Runtime Dynamic = 0.00891683 W

              Integer RF:
                Area = 0.186234 mm^2
                Peak Dynamic = 0.0122292 W
                Subthreshold Leakage = 0.00159167 W
                Subthreshold Leakage with power gating = 0.000581031 W
                Gate Leakage = 0.000571424 W
                Runtime Dynamic = 0.00786231 W

              Floating Point RF:
                Area = 0.107434 mm^2
                Peak Dynamic = 0.00731918 W
                Subthreshold Leakage = 0.00103377 W
                Subthreshold Leakage with power gating = 0.00041132 W
                Gate Leakage = 0.000335596 W
                Runtime Dynamic = 0.00105452 W

          Instruction Scheduler:
            Area = 1.11343 mm^2
            Peak Dynamic = 2.36434 W
            Subthreshold Leakage = 0.0299356 W
            Subthreshold Leakage with power gating = 0.0165819 W
            Gate Leakage = 0.0107484 W
            Runtime Dynamic = 0.113668 W

              Instruction Window:
                Area = 0.519531 mm^2
                Peak Dynamic = 1.01319 W
                Subthreshold Leakage = 0.0210861 W
                Subthreshold Leakage with power gating = 0.0119994 W
                Gate Leakage = 0.00784113 W
                Runtime Dynamic = 0.0506279 W

              FP Instruction Window:
                Area = 0.167689 mm^2
                Peak Dynamic = 0.592068 W
                Subthreshold Leakage = 0.00447456 W
                Subthreshold Leakage with power gating = 0.00253081 W
                Gate Leakage = 0.0017016 W
                Runtime Dynamic = 0.0293861 W

              ROB:
                Area = 0.426209 mm^2
                Peak Dynamic = 0.75908 W
                Subthreshold Leakage = 0.00437495 W
                Subthreshold Leakage with power gating = 0.0020517 W
                Gate Leakage = 0.00120572 W
                Runtime Dynamic = 0.0336543 W

          Integer ALUs (Count: 6 ):
            Area = 0.329609 mm^2
            Peak Dynamic = 0.0254577 W
            Subthreshold Leakage = 0.0927722 W
            Subthreshold Leakage with power gating = 0.0313106 W
            Gate Leakage = 0.0344197 W
            Runtime Dynamic = 0.124267 W

          Floating Point Units (FPUs) (Count: 2 ):
            Area = 2.35571 mm^2
            Peak Dynamic = 0.0460055 W
            Subthreshold Leakage = 0.16576 W
            Subthreshold Leakage with power gating = 0.055944 W
            Gate Leakage = 0.0614991 W
            Runtime Dynamic = 0.314986 W

          Complex ALUs (Mul/Div) (Count: 1 ):
            Area = 0.164805 mm^2
            Peak Dynamic = 0.0130605 W
            Subthreshold Leakage = 0.0463861 W
            Subthreshold Leakage with power gating = 0.0156553 W
            Gate Leakage = 0.0172098 W
            Runtime Dynamic = 0.20642 W

          Results Broadcast Bus:
            Area Overhead = 0.0245306 mm^2
            Peak Dynamic = 0.0314644 W
            Subthreshold Leakage = 0.0233657 W
            Subthreshold Leakage with power gating = 0.00788591 W
            Gate Leakage = 0.00866896 W
            Runtime Dynamic = 0.0690752 W

*****************************************************************************************
Core:
      Area = 12.6963 mm^2
      Peak Dynamic = 7.08131 W
      Subthreshold Leakage = 1.14508 W
      Subthreshold Leakage with power gating = 0.431469 W
      Gate Leakage = 0.431123 W
      Runtime Dynamic = 1.05269 W

      Instruction Fetch Unit:
        Area = 3.04058 mm^2
        Peak Dynamic = 1.53458 W
        Subthreshold Leakage = 0.226888 W
        Subthreshold Leakage with power gating = 0.0933342 W
        Gate Leakage = 0.082348 W
        Runtime Dynamic = 0.0641054 W

          Instruction Cache:
            Area = 1.60147 mm^2
            Peak Dynamic = 0.543887 W
            Subthreshold Leakage = 0.093335 W
            Subthreshold Leakage with power gating = 0.044301 W
            Gate Leakage = 0.042566 W
            Runtime Dynamic = 0.0295664 W

          Branch Target Buffer:
            Area = 0.397072 mm^2
            Peak Dynamic = 0.0840866 W
            Subthreshold Leakage = 0.02173 W
            Subthreshold Leakage with power gating = 0.0105914 W
            Gate Leakage = 0.00551055 W
            Runtime Dynamic = 0.00127887 W

          Branch Predictor:
            Area = 0.0686002 mm^2
            Peak Dynamic = 0.0275933 W
            Subthreshold Leakage = 0.00468696 W
            Subthreshold Leakage with power gating = 0.00225328 W
            Gate Leakage = 0.00101062 W
            Runtime Dynamic = 0.000489923 W

              Global Predictor:
                Area = 0.0218979 mm^2
                Peak Dynamic = 0.0077921 W
                Subthreshold Leakage = 0.00178236 W
                Subthreshold Leakage with power gating = 0.000855551 W
                Gate Leakage = 0.000370196 W
                Runtime Dynamic = 0.000128404 W

              Local Predictor:
              L1_Local Predictor:
                Area = 0.0128884 mm^2
                Peak Dynamic = 0.00653673 W
                Subthreshold Leakage = 0.000903617 W
                Subthreshold Leakage with power gating = 0.000433877 W
                Gate Leakage = 0.000207902 W
                Runtime Dynamic = 0.000110791 W

              L2_Local Predictor:
                Area = 0.00661857 mm^2
                Peak Dynamic = 0.00333484 W
                Subthreshold Leakage = 0.000457985 W
                Subthreshold Leakage with power gating = 0.00021904 W
                Gate Leakage = 0.000109414 W
                Runtime Dynamic = 5.65262e-05 W

              Chooser:
                Area = 0.0218979 mm^2
                Peak Dynamic = 0.0077921 W
                Subthreshold Leakage = 0.00178236 W
                Subthreshold Leakage with power gating = 0.000855551 W
                Gate Leakage = 0.000370196 W
                Runtime Dynamic = 0.000128404 W

              RAS:
                Area = 0.00529751 mm^2
                Peak Dynamic = 0.00547237 W
                Subthreshold Leakage = 0.000218626 W
                Subthreshold Leakage with power gating = 0.000108298 W
                Gate Leakage = 6.23254e-05 W
                Runtime Dynamic = 0.000122325 W

          Instruction Buffer:
            Area = 0.0111146 mm^2
            Peak Dynamic = 0.290305 W
            Subthreshold Leakage = 0.000365712 W
            Subthreshold Leakage with power gating = 0.000153616 W
            Gate Leakage = 9.42121e-05 W
            Runtime Dynamic = 0.00834898 W

          Instruction Decoder:
            Area = 0.939544 mm^2
            Peak Dynamic = 0.566091 W
            Subthreshold Leakage = 0.102165 W
            Subthreshold Leakage with power gating = 0.0344807 W
            Gate Leakage = 0.028867 W
            Runtime Dynamic = 0.0244206 W

      Renaming Unit:
        Area = 0.187354 mm^2
        Peak Dynamic = 2.14888 W
        Subthreshold Leakage = 0.0176949 W
        Subthreshold Leakage with power gating = 0.00901078 W
        Gate Leakage = 0.0121236 W
        Runtime Dynamic = 0.0442651 W

          Int Front End RAT:
            Area = 0.0583904 mm^2
            Peak Dynamic = 0.386173 W
            Subthreshold Leakage = 0.00151853 W
            Subthreshold Leakage with power gating = 0.000865565 W
            Gate Leakage = 0.000537576 W
            Runtime Dynamic = 0.0153217 W

          FP Front End RAT:
            Area = 0.0852001 mm^2
            Peak Dynamic = 1.61287 W
            Subthreshold Leakage = 0.0114141 W
            Subthreshold Leakage with power gating = 0.00650604 W
            Gate Leakage = 0.00723124 W
            Runtime Dynamic = 0.0270121 W

          Free List:
            Area = 0.0209802 mm^2
            Peak Dynamic = 0.0187401 W
            Subthreshold Leakage = 0.000157165 W
            Subthreshold Leakage with power gating = 8.49701e-05 W
            Gate Leakage = 5.50825e-05 W
            Runtime Dynamic = 0.00193071 W

      Load Store Unit:
        Area = 1.98568 mm^2
        Peak Dynamic = 0.798349 W
        Subthreshold Leakage = 0.0912613 W
        Subthreshold Leakage with power gating = 0.0480116 W
        Gate Leakage = 0.0319237 W
        Runtime Dynamic = 0.0697603 W

          Data Cache:
            Area = 1.5316 mm^2
            Peak Dynamic = 0.773182 W
            Subthreshold Leakage = 0.0809419 W
            Subthreshold Leakage with power gating = 0.0432002 W
            Gate Leakage = 0.025643 W
            Runtime Dynamic = 0.0430489 W

          LoadQ:
            Area = 0.0430063 mm^2
            Peak Dynamic = 0.00742509 W
            Subthreshold Leakage = 0.00238113 W
            Subthreshold Leakage with power gating = 0.00135725 W
            Gate Leakage = 0.000855022 W
            Runtime Dynamic = 0.00742516 W

          StoreQ:
            Area = 0.0515274 mm^2
            Peak Dynamic = 0.00964268 W
            Subthreshold Leakage = 0.00333321 W
            Subthreshold Leakage with power gating = 0.00189993 W
            Gate Leakage = 0.00112608 W
            Runtime Dynamic = 0.0192855 W

      Memory Management Unit:
        Area = 0.100456 mm^2
        Peak Dynamic = 0.0857584 W
        Subthreshold Leakage = 0.0106657 W
        Subthreshold Leakage with power gating = 0.00500875 W
        Gate Leakage = 0.0062802 W
        Runtime Dynamic = 0.00758479 W

          Itlb:
            Area = 0.0319967 mm^2
            Peak Dynamic = 0.00997408 W
            Subthreshold Leakage = 0.00232604 W
            Subthreshold Leakage with power gating = 0.00132584 W
            Gate Leakage = 0.000775623 W
            Runtime Dynamic = 0.00134806 W

          Dtlb:
            Area = 0.0456762 mm^2
            Peak Dynamic = 0.00618932 W
            Subthreshold Leakage = 0.00373455 W
            Subthreshold Leakage with power gating = 0.00212869 W
            Gate Leakage = 0.00120491 W
            Runtime Dynamic = 0.0062361 W

      Execution Unit:
        Area = 4.30453 mm^2
        Peak Dynamic = 2.51374 W
        Subthreshold Leakage = 0.36545 W
        Subthreshold Leakage with power gating = 0.129924 W
        Gate Leakage = 0.137753 W
        Runtime Dynamic = 0.866976 W

          Register Files:
            Area = 0.293668 mm^2
            Peak Dynamic = 0.0210309 W
            Subthreshold Leakage = 0.00262543 W
            Subthreshold Leakage with power gating = 0.000992351 W
            Gate Leakage = 0.00090702 W
            Runtime Dynamic = 0.0100723 W

              Integer RF:
                Area = 0.186234 mm^2
                Peak Dynamic = 0.0132612 W
                Subthreshold Leakage = 0.00159167 W
                Subthreshold Leakage with power gating = 0.000581031 W
                Gate Leakage = 0.000571424 W
                Runtime Dynamic = 0.00888113 W

              Floating Point RF:
                Area = 0.107434 mm^2
                Peak Dynamic = 0.00776964 W
                Subthreshold Leakage = 0.00103377 W
                Subthreshold Leakage with power gating = 0.00041132 W
                Gate Leakage = 0.000335596 W
                Runtime Dynamic = 0.00119117 W

          Instruction Scheduler:
            Area = 1.11343 mm^2
            Peak Dynamic = 2.36434 W
            Subthreshold Leakage = 0.0299356 W
            Subthreshold Leakage with power gating = 0.0165819 W
            Gate Leakage = 0.0107484 W
            Runtime Dynamic = 0.128442 W

              Instruction Window:
                Area = 0.519531 mm^2
                Peak Dynamic = 1.01319 W
                Subthreshold Leakage = 0.0210861 W
                Subthreshold Leakage with power gating = 0.0119994 W
                Gate Leakage = 0.00784113 W
                Runtime Dynamic = 0.0571888 W

              FP Instruction Window:
                Area = 0.167689 mm^2
                Peak Dynamic = 0.592068 W
                Subthreshold Leakage = 0.00447456 W
                Subthreshold Leakage with power gating = 0.00253081 W
                Gate Leakage = 0.0017016 W
                Runtime Dynamic = 0.0331943 W

              ROB:
                Area = 0.426209 mm^2
                Peak Dynamic = 0.75908 W
                Subthreshold Leakage = 0.00437495 W
                Subthreshold Leakage with power gating = 0.0020517 W
                Gate Leakage = 0.00120572 W
                Runtime Dynamic = 0.0380587 W

          Integer ALUs (Count: 6 ):
            Area = 0.329609 mm^2
            Peak Dynamic = 0.0292081 W
            Subthreshold Leakage = 0.0927722 W
            Subthreshold Leakage with power gating = 0.0313106 W
            Gate Leakage = 0.0344197 W
            Runtime Dynamic = 0.128279 W

          Floating Point Units (FPUs) (Count: 2 ):
            Area = 2.35571 mm^2
            Peak Dynamic = 0.0488369 W
            Subthreshold Leakage = 0.16576 W
            Subthreshold Leakage with power gating = 0.055944 W
            Gate Leakage = 0.0614991 W
            Runtime Dynamic = 0.316113 W

          Complex ALUs (Mul/Div) (Count: 1 ):
            Area = 0.164805 mm^2
            Peak Dynamic = 0.0133448 W
            Subthreshold Leakage = 0.0463861 W
            Subthreshold Leakage with power gating = 0.0156553 W
            Gate Leakage = 0.0172098 W
            Runtime Dynamic = 0.206608 W

          Results Broadcast Bus:
            Area Overhead = 0.0245306 mm^2
            Peak Dynamic = 0.0339438 W
            Subthreshold Leakage = 0.0233657 W
            Subthreshold Leakage with power gating = 0.00788591 W
            Gate Leakage = 0.00866896 W
            Runtime Dynamic = 0.0774612 W

*****************************************************************************************
Core:
      Area = 12.6963 mm^2
      Peak Dynamic = 7.05411 W
      Subthreshold Leakage = 1.14508 W
      Subthreshold Leakage with power gating = 0.431469 W
      Gate Leakage = 0.431123 W
      Runtime Dynamic = 1.04 W

      Instruction Fetch Unit:
        Area = 3.04058 mm^2
        Peak Dynamic = 1.51865 W
        Subthreshold Leakage = 0.226888 W
        Subthreshold Leakage with power gating = 0.0933342 W
        Gate Leakage = 0.082348 W
        Runtime Dynamic = 0.0631808 W

          Instruction Cache:
            Area = 1.60147 mm^2
            Peak Dynamic = 0.528587 W
            Subthreshold Leakage = 0.093335 W
            Subthreshold Leakage with power gating = 0.044301 W
            Gate Leakage = 0.042566 W
            Runtime Dynamic = 0.0295664 W

          Branch Target Buffer:
            Area = 0.397072 mm^2
            Peak Dynamic = 0.0840866 W
            Subthreshold Leakage = 0.02173 W
            Subthreshold Leakage with power gating = 0.0105914 W
            Gate Leakage = 0.00551055 W
            Runtime Dynamic = 0.00127887 W

          Branch Predictor:
            Area = 0.0686002 mm^2
            Peak Dynamic = 0.0275933 W
            Subthreshold Leakage = 0.00468696 W
            Subthreshold Leakage with power gating = 0.00225328 W
            Gate Leakage = 0.00101062 W
            Runtime Dynamic = 0.000487237 W

              Global Predictor:
                Area = 0.0218979 mm^2
                Peak Dynamic = 0.0077921 W
                Subthreshold Leakage = 0.00178236 W
                Subthreshold Leakage with power gating = 0.000855551 W
                Gate Leakage = 0.000370196 W
                Runtime Dynamic = 0.000128643 W

              Local Predictor:
              L1_Local Predictor:
                Area = 0.0128884 mm^2
                Peak Dynamic = 0.00653673 W
                Subthreshold Leakage = 0.000903617 W
                Subthreshold Leakage with power gating = 0.000433877 W
                Gate Leakage = 0.000207902 W
                Runtime Dynamic = 0.000111066 W

              L2_Local Predictor:
                Area = 0.00661857 mm^2
                Peak Dynamic = 0.00333484 W
                Subthreshold Leakage = 0.000457985 W
                Subthreshold Leakage with power gating = 0.00021904 W
                Gate Leakage = 0.000109414 W
                Runtime Dynamic = 5.6667e-05 W

              Chooser:
                Area = 0.0218979 mm^2
                Peak Dynamic = 0.0077921 W
                Subthreshold Leakage = 0.00178236 W
                Subthreshold Leakage with power gating = 0.000855551 W
                Gate Leakage = 0.000370196 W
                Runtime Dynamic = 0.000128643 W

              RAS:
                Area = 0.00529751 mm^2
                Peak Dynamic = 0.00547237 W
                Subthreshold Leakage = 0.000218626 W
                Subthreshold Leakage with power gating = 0.000108298 W
                Gate Leakage = 6.23254e-05 W
                Runtime Dynamic = 0.000118883 W

          Instruction Buffer:
            Area = 0.0111146 mm^2
            Peak Dynamic = 0.290305 W
            Subthreshold Leakage = 0.000365712 W
            Subthreshold Leakage with power gating = 0.000153616 W
            Gate Leakage = 9.42121e-05 W
            Runtime Dynamic = 0.0081141 W

          Instruction Decoder:
            Area = 0.939544 mm^2
            Peak Dynamic = 0.566091 W
            Subthreshold Leakage = 0.102165 W
            Subthreshold Leakage with power gating = 0.0344807 W
            Gate Leakage = 0.028867 W
            Runtime Dynamic = 0.0237336 W

      Renaming Unit:
        Area = 0.187354 mm^2
        Peak Dynamic = 2.14888 W
        Subthreshold Leakage = 0.0176949 W
        Subthreshold Leakage with power gating = 0.00901078 W
        Gate Leakage = 0.0121236 W
        Runtime Dynamic = 0.0429856 W

          Int Front End RAT:
            Area = 0.0583904 mm^2
            Peak Dynamic = 0.386173 W
            Subthreshold Leakage = 0.00151853 W
            Subthreshold Leakage with power gating = 0.000865565 W
            Gate Leakage = 0.000537576 W
            Runtime Dynamic = 0.0148797 W

          FP Front End RAT:
            Area = 0.0852001 mm^2
            Peak Dynamic = 1.61287 W
            Subthreshold Leakage = 0.0114141 W
            Subthreshold Leakage with power gating = 0.00650604 W
            Gate Leakage = 0.00723124 W
            Runtime Dynamic = 0.0262291 W

          Free List:
            Area = 0.0209802 mm^2
            Peak Dynamic = 0.0187401 W
            Subthreshold Leakage = 0.000157165 W
            Subthreshold Leakage with power gating = 8.49701e-05 W
            Gate Leakage = 5.50825e-05 W
            Runtime Dynamic = 0.00187612 W

      Load Store Unit:
        Area = 1.98568 mm^2
        Peak Dynamic = 0.790966 W
        Subthreshold Leakage = 0.0912613 W
        Subthreshold Leakage with power gating = 0.0480116 W
        Gate Leakage = 0.0319237 W
        Runtime Dynamic = 0.0671012 W

          Data Cache:
            Area = 1.5316 mm^2
            Peak Dynamic = 0.766789 W
            Subthreshold Leakage = 0.0809419 W
            Subthreshold Leakage with power gating = 0.0432002 W
            Gate Leakage = 0.025643 W
            Runtime Dynamic = 0.0414393 W

          LoadQ:
            Area = 0.0430063 mm^2
            Peak Dynamic = 0.00713338 W
            Subthreshold Leakage = 0.00238113 W
            Subthreshold Leakage with power gating = 0.00135725 W
            Gate Leakage = 0.000855022 W
            Runtime Dynamic = 0.00713343 W

          StoreQ:
            Area = 0.0515274 mm^2
            Peak Dynamic = 0.00926385 W
            Subthreshold Leakage = 0.00333321 W
            Subthreshold Leakage with power gating = 0.00189993 W
            Gate Leakage = 0.00112608 W
            Runtime Dynamic = 0.0185278 W

      Memory Management Unit:
        Area = 0.100456 mm^2
        Peak Dynamic = 0.0850755 W
        Subthreshold Leakage = 0.0106657 W
        Subthreshold Leakage with power gating = 0.00500875 W
        Gate Leakage = 0.0062802 W
        Runtime Dynamic = 0.00734179 W

          Itlb:
            Area = 0.0319967 mm^2
            Peak Dynamic = 0.00969351 W
            Subthreshold Leakage = 0.00232604 W
            Subthreshold Leakage with power gating = 0.00132584 W
            Gate Leakage = 0.000775623 W
            Runtime Dynamic = 0.00134806 W

          Dtlb:
            Area = 0.0456762 mm^2
            Peak Dynamic = 0.00594616 W
            Subthreshold Leakage = 0.00373455 W
            Subthreshold Leakage with power gating = 0.00212869 W
            Gate Leakage = 0.00120491 W
            Runtime Dynamic = 0.0059931 W

      Execution Unit:
        Area = 4.30453 mm^2
        Peak Dynamic = 2.51055 W
        Subthreshold Leakage = 0.36545 W
        Subthreshold Leakage with power gating = 0.129924 W
        Gate Leakage = 0.137753 W
        Runtime Dynamic = 0.85939 W

          Register Files:
            Area = 0.293668 mm^2
            Peak Dynamic = 0.02061 W
            Subthreshold Leakage = 0.00262543 W
            Subthreshold Leakage with power gating = 0.000992351 W
            Gate Leakage = 0.00090702 W
            Runtime Dynamic = 0.00978894 W

              Integer RF:
                Area = 0.186234 mm^2
                Peak Dynamic = 0.0130656 W
                Subthreshold Leakage = 0.00159167 W
                Subthreshold Leakage with power gating = 0.000581031 W
                Gate Leakage = 0.000571424 W
                Runtime Dynamic = 0.00863128 W

              Floating Point RF:
                Area = 0.107434 mm^2
                Peak Dynamic = 0.00754441 W
                Subthreshold Leakage = 0.00103377 W
                Subthreshold Leakage with power gating = 0.00041132 W
                Gate Leakage = 0.000335596 W
                Runtime Dynamic = 0.00115766 W

          Instruction Scheduler:
            Area = 1.11343 mm^2
            Peak Dynamic = 2.36434 W
            Subthreshold Leakage = 0.0299356 W
            Subthreshold Leakage with power gating = 0.0165819 W
            Gate Leakage = 0.0107484 W
            Runtime Dynamic = 0.124794 W

              Instruction Window:
                Area = 0.519531 mm^2
                Peak Dynamic = 1.01319 W
                Subthreshold Leakage = 0.0210861 W
                Subthreshold Leakage with power gating = 0.0119994 W
                Gate Leakage = 0.00784113 W
                Runtime Dynamic = 0.05558 W

              FP Instruction Window:
                Area = 0.167689 mm^2
                Peak Dynamic = 0.592068 W
                Subthreshold Leakage = 0.00447456 W
                Subthreshold Leakage with power gating = 0.00253081 W
                Gate Leakage = 0.0017016 W
                Runtime Dynamic = 0.0322604 W

              ROB:
                Area = 0.426209 mm^2
                Peak Dynamic = 0.75908 W
                Subthreshold Leakage = 0.00437495 W
                Subthreshold Leakage with power gating = 0.0020517 W
                Gate Leakage = 0.00120572 W
                Runtime Dynamic = 0.0369532 W

          Integer ALUs (Count: 6 ):
            Area = 0.329609 mm^2
            Peak Dynamic = 0.0283914 W
            Subthreshold Leakage = 0.0927722 W
            Subthreshold Leakage with power gating = 0.0313106 W
            Gate Leakage = 0.0344197 W
            Runtime Dynamic = 0.127339 W

          Floating Point Units (FPUs) (Count: 2 ):
            Area = 2.35571 mm^2
            Peak Dynamic = 0.0474212 W
            Subthreshold Leakage = 0.16576 W
            Subthreshold Leakage with power gating = 0.055944 W
            Gate Leakage = 0.0614991 W
            Runtime Dynamic = 0.31555 W

          Complex ALUs (Mul/Div) (Count: 1 ):
            Area = 0.164805 mm^2
            Peak Dynamic = 0.0133448 W
            Subthreshold Leakage = 0.0463861 W
            Subthreshold Leakage with power gating = 0.0156553 W
            Gate Leakage = 0.0172098 W
            Runtime Dynamic = 0.206608 W

          Results Broadcast Bus:
            Area Overhead = 0.0245306 mm^2
            Peak Dynamic = 0.0334853 W
            Subthreshold Leakage = 0.0233657 W
            Subthreshold Leakage with power gating = 0.00788591 W
            Gate Leakage = 0.00866896 W
            Runtime Dynamic = 0.0753099 W

*****************************************************************************************
Core:
      Area = 12.6963 mm^2
      Peak Dynamic = 7.05249 W
      Subthreshold Leakage = 1.14508 W
      Subthreshold Leakage with power gating = 0.431469 W
      Gate Leakage = 0.431123 W
      Runtime Dynamic = 1.03929 W

      Instruction Fetch Unit:
        Area = 3.04058 mm^2
        Peak Dynamic = 1.5174 W
        Subthreshold Leakage = 0.226888 W
        Subthreshold Leakage with power gating = 0.0933342 W
        Gate Leakage = 0.082348 W
        Runtime Dynamic = 0.0630456 W

          Instruction Cache:
            Area = 1.60147 mm^2
            Peak Dynamic = 0.527393 W
            Subthreshold Leakage = 0.093335 W
            Subthreshold Leakage with power gating = 0.044301 W
            Gate Leakage = 0.042566 W
            Runtime Dynamic = 0.0295099 W

          Branch Target Buffer:
            Area = 0.397072 mm^2
            Peak Dynamic = 0.0840866 W
            Subthreshold Leakage = 0.02173 W
            Subthreshold Leakage with power gating = 0.0105914 W
            Gate Leakage = 0.00551055 W
            Runtime Dynamic = 0.00127397 W

          Branch Predictor:
            Area = 0.0686002 mm^2
            Peak Dynamic = 0.0275933 W
            Subthreshold Leakage = 0.00468696 W
            Subthreshold Leakage with power gating = 0.00225328 W
            Gate Leakage = 0.00101062 W
            Runtime Dynamic = 0.000485404 W

              Global Predictor:
                Area = 0.0218979 mm^2
                Peak Dynamic = 0.0077921 W
                Subthreshold Leakage = 0.00178236 W
                Subthreshold Leakage with power gating = 0.000855551 W
                Gate Leakage = 0.000370196 W
                Runtime Dynamic = 0.000128104 W

              Local Predictor:
              L1_Local Predictor:
                Area = 0.0128884 mm^2
                Peak Dynamic = 0.00653673 W
                Subthreshold Leakage = 0.000903617 W
                Subthreshold Leakage with power gating = 0.000433877 W
                Gate Leakage = 0.000207902 W
                Runtime Dynamic = 0.000110587 W

              L2_Local Predictor:
                Area = 0.00661857 mm^2
                Peak Dynamic = 0.00333484 W
                Subthreshold Leakage = 0.000457985 W
[...]
            Subthreshold Leakage with power gating = 8.49701e-05 W
            Gate Leakage = 5.50825e-05 W
            Runtime Dynamic = 0 W

      Load Store Unit:
        Area = 1.98568 mm^2
        Peak Dynamic = 0.610437 W
        Subthreshold Leakage = 0.0912613 W
        Subthreshold Leakage with power gating = 0.0480116 W
        Gate Leakage = 0.0319237 W
        Runtime Dynamic = 6.36376e-07 W

          Data Cache:
            Area = 1.5316 mm^2
            Peak Dynamic = 0.610437 W
            Subthreshold Leakage = 0.0809419 W
            Subthreshold Leakage with power gating = 0.0432002 W
            Gate Leakage = 0.025643 W
            Runtime Dynamic = 0 W

          LoadQ:
            Area = 0.0430063 mm^2
            Peak Dynamic = 0 W
            Subthreshold Leakage = 0.00238113 W
            Subthreshold Leakage with power gating = 0.00135725 W
            Gate Leakage = 0.000855022 W
            Runtime Dynamic = 0 W

          StoreQ:
            Area = 0.0515274 mm^2
            Peak Dynamic = 0 W
            Subthreshold Leakage = 0.00333321 W
            Subthreshold Leakage with power gating = 0.00189993 W
            Gate Leakage = 0.00112608 W
            Runtime Dynamic = 0 W

      Memory Management Unit:
        Area = 0.100456 mm^2
        Peak Dynamic = 0.0655457 W
        Subthreshold Leakage = 0.0106657 W
        Subthreshold Leakage with power gating = 0.00500875 W
        Gate Leakage = 0.0062802 W
        Runtime Dynamic = 6.36376e-07 W

          Itlb:
            Area = 0.0319967 mm^2
            Peak Dynamic = 0 W
            Subthreshold Leakage = 0.00232604 W
            Subthreshold Leakage with power gating = 0.00132584 W
            Gate Leakage = 0.000775623 W
            Runtime Dynamic = 0 W

          Dtlb:
            Area = 0.0456762 mm^2
            Peak Dynamic = 0 W
            Subthreshold Leakage = 0.00373455 W
            Subthreshold Leakage with power gating = 0.00212869 W
            Gate Leakage = 0.00120491 W
            Runtime Dynamic = 0 W

      Execution Unit:
        Area = 4.30453 mm^2
        Peak Dynamic = 2.36434 W
        Subthreshold Leakage = 0.36545 W
        Subthreshold Leakage with power gating = 0.129924 W
        Gate Leakage = 0.137753 W
        Runtime Dynamic = 0.593328 W

          Register Files:
            Area = 0.293668 mm^2
            Peak Dynamic = 0 W
            Subthreshold Leakage = 0.00262543 W
            Subthreshold Leakage with power gating = 0.000992351 W
            Gate Leakage = 0.00090702 W
            Runtime Dynamic = 0 W

              Integer RF:
                Area = 0.186234 mm^2
                Peak Dynamic = 0 W
                Subthreshold Leakage = 0.00159167 W
                Subthreshold Leakage with power gating = 0.000581031 W
                Gate Leakage = 0.000571424 W
                Runtime Dynamic = 0 W

              Floating Point RF:
                Area = 0.107434 mm^2
                Peak Dynamic = 0 W
                Subthreshold Leakage = 0.00103377 W
                Subthreshold Leakage with power gating = 0.00041132 W
                Gate Leakage = 0.000335596 W
                Runtime Dynamic = 0 W

          Instruction Scheduler:
            Area = 1.11343 mm^2
            Peak Dynamic = 2.36434 W
            Subthreshold Leakage = 0.0299356 W
            Subthreshold Leakage with power gating = 0.0165819 W
            Gate Leakage = 0.0107484 W
            Runtime Dynamic = 0 W

              Instruction Window:
                Area = 0.519531 mm^2
                Peak Dynamic = 1.01319 W
                Subthreshold Leakage = 0.0210861 W
                Subthreshold Leakage with power gating = 0.0119994 W
                Gate Leakage = 0.00784113 W
                Runtime Dynamic = 0 W

              FP Instruction Window:
                Area = 0.167689 mm^2
                Peak Dynamic = 0.592068 W
                Subthreshold Leakage = 0.00447456 W
                Subthreshold Leakage with power gating = 0.00253081 W
                Gate Leakage = 0.0017016 W
                Runtime Dynamic = 0 W

              ROB:
                Area = 0.426209 mm^2
                Peak Dynamic = 0.75908 W
                Subthreshold Leakage = 0.00437495 W
                Subthreshold Leakage with power gating = 0.0020517 W
                Gate Leakage = 0.00120572 W
                Runtime Dynamic = 0 W

          Integer ALUs (Count: 6 ):
            Area = 0.329609 mm^2
            Peak Dynamic = 0 W
            Subthreshold Leakage = 0.0927722 W
            Subthreshold Leakage with power gating = 0.0313106 W
            Gate Leakage = 0.0344197 W
            Runtime Dynamic = 0.0988879 W

          Floating Point Units (FPUs) (Count: 2 ):
            Area = 2.35571 mm^2
            Peak Dynamic = 0 W
            Subthreshold Leakage = 0.16576 W
            Subthreshold Leakage with power gating = 0.055944 W
            Gate Leakage = 0.0614991 W
            Runtime Dynamic = 0.296664 W

          Complex ALUs (Mul/Div) (Count: 1 ):
            Area = 0.164805 mm^2
            Peak Dynamic = 0 W
            Subthreshold Leakage = 0.0463861 W
            Subthreshold Leakage with power gating = 0.0156553 W
            Gate Leakage = 0.0172098 W
            Runtime Dynamic = 0.197776 W

          Results Broadcast Bus:
            Area Overhead = 0.0245306 mm^2
            Peak Dynamic = 0 W
            Subthreshold Leakage = 0.0233657 W
            Subthreshold Leakage with power gating = 0.00788591 W
            Gate Leakage = 0.00866896 W
            Runtime Dynamic = 0 W

*****************************************************************************************
Core:
      Area = 12.6963 mm^2
      Peak Dynamic = 6.15728 W
      Subthreshold Leakage = 1.14508 W
      Subthreshold Leakage with power gating = 0.431469 W
      Gate Leakage = 0.431123 W
      Runtime Dynamic = 0.593331 W

      Instruction Fetch Unit:
        Area = 3.04058 mm^2
        Peak Dynamic = 0.968076 W
        Subthreshold Leakage = 0.226888 W
        Subthreshold Leakage with power gating = 0.0933342 W
        Gate Leakage = 0.082348 W
        Runtime Dynamic = 6.36376e-07 W

          Instruction Cache:
            Area = 1.60147 mm^2
            Peak Dynamic = 0 W
            Subthreshold Leakage = 0.093335 W
            Subthreshold Leakage with power gating = 0.044301 W
            Gate Leakage = 0.042566 W
            Runtime Dynamic = 0 W

          Branch Target Buffer:
            Area = 0.397072 mm^2
            Peak Dynamic = 0.0840866 W
            Subthreshold Leakage = 0.02173 W
            Subthreshold Leakage with power gating = 0.0105914 W
            Gate Leakage = 0.00551055 W
            Runtime Dynamic = 0 W

          Branch Predictor:
            Area = 0.0686002 mm^2
            Peak Dynamic = 0.0275933 W
            Subthreshold Leakage = 0.00468696 W
            Subthreshold Leakage with power gating = 0.00225328 W
            Gate Leakage = 0.00101062 W
            Runtime Dynamic = 0 W

              Global Predictor:
                Area = 0.0218979 mm^2
                Peak Dynamic = 0.0077921 W
                Subthreshold Leakage = 0.00178236 W
                Subthreshold Leakage with power gating = 0.000855551 W
                Gate Leakage = 0.000370196 W
                Runtime Dynamic = 0 W

              Local Predictor:
              L1_Local Predictor:
                Area = 0.0128884 mm^2
                Peak Dynamic = 0.00653673 W
                Subthreshold Leakage = 0.000903617 W
                Subthreshold Leakage with power gating = 0.000433877 W
                Gate Leakage = 0.000207902 W
                Runtime Dynamic = 0 W

              L2_Local Predictor:
                Area = 0.00661857 mm^2
                Peak Dynamic = 0.00333484 W
                Subthreshold Leakage = 0.000457985 W
                Subthreshold Leakage with power gating = 0.00021904 W
                Gate Leakage = 0.000109414 W
                Runtime Dynamic = 0 W

              Chooser:
                Area = 0.0218979 mm^2
                Peak Dynamic = 0.0077921 W
                Subthreshold Leakage = 0.00178236 W
                Subthreshold Leakage with power gating = 0.000855551 W
                Gate Leakage = 0.000370196 W
                Runtime Dynamic = 0 W

              RAS:
                Area = 0.00529751 mm^2
                Peak Dynamic = 0.00547237 W
                Subthreshold Leakage = 0.000218626 W
                Subthreshold Leakage with power gating = 0.000108298 W
                Gate Leakage = 6.23254e-05 W
                Runtime Dynamic = 0 W

          Instruction Buffer:
            Area = 0.0111146 mm^2
            Peak Dynamic = 0.290305 W
            Subthreshold Leakage = 0.000365712 W
            Subthreshold Leakage with power gating = 0.000153616 W
            Gate Leakage = 9.42121e-05 W
            Runtime Dynamic = 0 W

          Instruction Decoder:
            Area = 0.939544 mm^2
            Peak Dynamic = 0.566091 W
            Subthreshold Leakage = 0.102165 W
            Subthreshold Leakage with power gating = 0.0344807 W
            Gate Leakage = 0.028867 W
            Runtime Dynamic = 0 W

      Renaming Unit:
        Area = 0.187354 mm^2
        Peak Dynamic = 2.14888 W
        Subthreshold Leakage = 0.0176949 W
        Subthreshold Leakage with power gating = 0.00901078 W
        Gate Leakage = 0.0121236 W
        Runtime Dynamic = 6.36376e-07 W

          Int Front End RAT:
            Area = 0.0583904 mm^2
            Peak Dynamic = 0.386173 W
            Subthreshold Leakage = 0.00151853 W
            Subthreshold Leakage with power gating = 0.000865565 W
            Gate Leakage = 0.000537576 W
            Runtime Dynamic = 0 W

          FP Front End RAT:
            Area = 0.0852001 mm^2
            Peak Dynamic = 1.61287 W
            Subthreshold Leakage = 0.0114141 W
            Subthreshold Leakage with power gating = 0.00650604 W
            Gate Leakage = 0.00723124 W
            Runtime Dynamic = 0 W

          Free List:
            Area = 0.0209802 mm^2
            Peak Dynamic = 0.0187401 W
            Subthreshold Leakage = 0.000157165 W
            Subthreshold Leakage with power gating = 8.49701e-05 W
            Gate Leakage = 5.50825e-05 W
            Runtime Dynamic = 0 W

      Load Store Unit:
        Area = 1.98568 mm^2
        Peak Dynamic = 0.610437 W
        Subthreshold Leakage = 0.0912613 W
        Subthreshold Leakage with power gating = 0.0480116 W
        Gate Leakage = 0.0319237 W
        Runtime Dynamic = 6.36376e-07 W

          Data Cache:
            Area = 1.5316 mm^2
            Peak Dynamic = 0.610437 W
            Subthreshold Leakage = 0.0809419 W
            Subthreshold Leakage with power gating = 0.0432002 W
            Gate Leakage = 0.025643 W
            Runtime Dynamic = 0 W

          LoadQ:
            Area = 0.0430063 mm^2
            Peak Dynamic = 0 W
            Subthreshold Leakage = 0.00238113 W
            Subthreshold Leakage with power gating = 0.00135725 W
            Gate Leakage = 0.000855022 W
            Runtime Dynamic = 0 W

          StoreQ:
            Area = 0.0515274 mm^2
            Peak Dynamic = 0 W
            Subthreshold Leakage = 0.00333321 W
            Subthreshold Leakage with power gating = 0.00189993 W
            Gate Leakage = 0.00112608 W
            Runtime Dynamic = 0 W

      Memory Management Unit:
        Area = 0.100456 mm^2
        Peak Dynamic = 0.0655457 W
        Subthreshold Leakage = 0.0106657 W
        Subthreshold Leakage with power gating = 0.00500875 W
        Gate Leakage = 0.0062802 W
        Runtime Dynamic = 6.36376e-07 W

          Itlb:
            Area = 0.0319967 mm^2
            Peak Dynamic = 0 W
            Subthreshold Leakage = 0.00232604 W
            Subthreshold Leakage with power gating = 0.00132584 W
            Gate Leakage = 0.000775623 W
            Runtime Dynamic = 0 W

          Dtlb:
            Area = 0.0456762 mm^2
            Peak Dynamic = 0 W
            Subthreshold Leakage = 0.00373455 W
            Subthreshold Leakage with power gating = 0.00212869 W
            Gate Leakage = 0.00120491 W
            Runtime Dynamic = 0 W

      Execution Unit:
        Area = 4.30453 mm^2
        Peak Dynamic = 2.36434 W
        Subthreshold Leakage = 0.36545 W
        Subthreshold Leakage with power gating = 0.129924 W
        Gate Leakage = 0.137753 W
        Runtime Dynamic = 0.593328 W

          Register Files:
            Area = 0.293668 mm^2
            Peak Dynamic = 0 W
            Subthreshold Leakage = 0.00262543 W
            Subthreshold Leakage with power gating = 0.000992351 W
            Gate Leakage = 0.00090702 W
            Runtime Dynamic = 0 W

              Integer RF:
                Area = 0.186234 mm^2
                Peak Dynamic = 0 W
                Subthreshold Leakage = 0.00159167 W
                Subthreshold Leakage with power gating = 0.000581031 W
                Gate Leakage = 0.000571424 W
                Runtime Dynamic = 0 W

              Floating Point RF:
                Area = 0.107434 mm^2
                Peak Dynamic = 0 W
                Subthreshold Leakage = 0.00103377 W
                Subthreshold Leakage with power gating = 0.00041132 W
                Gate Leakage = 0.000335596 W
                Runtime Dynamic = 0 W

          Instruction Scheduler:
            Area = 1.11343 mm^2
            Peak Dynamic = 2.36434 W
            Subthreshold Leakage = 0.0299356 W
            Subthreshold Leakage with power gating = 0.0165819 W
            Gate Leakage = 0.0107484 W
            Runtime Dynamic = 0 W

              Instruction Window:
                Area = 0.519531 mm^2
                Peak Dynamic = 1.01319 W
                Subthreshold Leakage = 0.0210861 W
                Subthreshold Leakage with power gating = 0.0119994 W
                Gate Leakage = 0.00784113 W
                Runtime Dynamic = 0 W

              FP Instruction Window:
                Area = 0.167689 mm^2
                Peak Dynamic = 0.592068 W
                Subthreshold Leakage = 0.00447456 W
                Subthreshold Leakage with power gating = 0.00253081 W
                Gate Leakage = 0.0017016 W
                Runtime Dynamic = 0 W

              ROB:
                Area = 0.426209 mm^2
                Peak Dynamic = 0.75908 W
                Subthreshold Leakage = 0.00437495 W
                Subthreshold Leakage with power gating = 0.0020517 W
                Gate Leakage = 0.00120572 W
                Runtime Dynamic = 0 W

          Integer ALUs (Count: 6 ):
            Area = 0.329609 mm^2
            Peak Dynamic = 0 W
            Subthreshold Leakage = 0.0927722 W
            Subthreshold Leakage with power gating = 0.0313106 W
            Gate Leakage = 0.0344197 W
            Runtime Dynamic = 0.0988879 W

          Floating Point Units (FPUs) (Count: 2 ):
            Area = 2.35571 mm^2
            Peak Dynamic = 0 W
            Subthreshold Leakage = 0.16576 W
            Subthreshold Leakage with power gating = 0.055944 W
            Gate Leakage = 0.0614991 W
            Runtime Dynamic = 0.296664 W

          Complex ALUs (Mul/Div) (Count: 1 ):
            Area = 0.164805 mm^2
            Peak Dynamic = 0 W
            Subthreshold Leakage = 0.0463861 W
            Subthreshold Leakage with power gating = 0.0156553 W
            Gate Leakage = 0.0172098 W
            Runtime Dynamic = 0.197776 W

          Results Broadcast Bus:
            Area Overhead = 0.0245306 mm^2
            Peak Dynamic = 0 W
            Subthreshold Leakage = 0.0233657 W
            Subthreshold Leakage with power gating = 0.00788591 W
            Gate Leakage = 0.00866896 W
            Runtime Dynamic = 0 W

*****************************************************************************************
L2
      Area = 4.99419 mm^2
      Peak Dynamic = 0.0326434 W
      Subthreshold Leakage = 0.224889 W
      Subthreshold Leakage with power gating = 0.103147 W
      Gate Leakage = 0.0302188 W
      Runtime Dynamic = 0.0164217 W

*****************************************************************************************
L2
      Area = 4.99419 mm^2
      Peak Dynamic = 0.0240802 W
      Subthreshold Leakage = 0.224889 W
      Subthreshold Leakage with power gating = 0.103147 W
      Gate Leakage = 0.0302188 W
      Runtime Dynamic = 0.0131098 W

*****************************************************************************************
L2
      Area = 4.99419 mm^2
      Peak Dynamic = 0.0232013 W
      Subthreshold Leakage = 0.224889 W
      Subthreshold Leakage with power gating = 0.103147 W
      Gate Leakage = 0.0302188 W
      Runtime Dynamic = 0.0127241 W

*****************************************************************************************
L2
      Area = 4.99419 mm^2
      Peak Dynamic = 0.0144475 W
      Subthreshold Leakage = 0.224889 W
      Subthreshold Leakage with power gating = 0.103147 W
      Gate Leakage = 0.0302188 W
      Runtime Dynamic = 0.00873661 W

*****************************************************************************************
L2
      Area = 4.99419 mm^2
      Peak Dynamic = 0.00327985 W
      Subthreshold Leakage = 0.224889 W
      Subthreshold Leakage with power gating = 0.103147 W
      Gate Leakage = 0.0302188 W
      Runtime Dynamic = 0.00155227 W

*****************************************************************************************
L2
      Area = 4.99419 mm^2
      Peak Dynamic = 0 W
      Subthreshold Leakage = 0.224889 W
      Subthreshold Leakage with power gating = 0.103147 W
      Gate Leakage = 0.0302188 W
      Runtime Dynamic = 4.80488e-06 W

*****************************************************************************************
L2
      Area = 4.99419 mm^2
      Peak Dynamic = 0 W
      Subthreshold Leakage = 0.224889 W
      Subthreshold Leakage with power gating = 0.103147 W
      Gate Leakage = 0.0302188 W
      Runtime Dynamic = 4.80488e-06 W

*****************************************************************************************
L2
      Area = 4.99419 mm^2
      Peak Dynamic = 0 W
      Subthreshold Leakage = 0.224889 W
      Subthreshold Leakage with power gating = 0.103147 W
      Gate Leakage = 0.0302188 W
      Runtime Dynamic = 4.80488e-06 W

*****************************************************************************************
NOC
      Area = 0.0870126 mm^2
      Peak Dynamic = 0.00622388 W
      Subthreshold Leakage = 0.00149161 W
      Subthreshold Leakage with power gating = 0.000850216 W
      Gate Leakage = 0.00102695 W
      Runtime Dynamic = 0.00965346 W

      Router: 
        Area = 0.0870126 mm^2
        Peak Dynamic = 0.00622388 W
        Subthreshold Leakage = 0.00149161 W
        Subthreshold Leakage with power gating = 0.000850216 W
        Gate Leakage = 0.00102695 W
        Runtime Dynamic = 0.00965346 W

            Virtual Channel Buffer:
              Area = 0.0686472 mm^2
              Peak Dynamic = 0.00469975 W
              Subthreshold Leakage = 0.000593759 W
              Subthreshold Leakage with power gating = 0.000338443 W
              Gate Leakage = 0.000325423 W
              Runtime Dynamic = 0.00728949 W

            Crossbar:
              Area = 0.00429497 mm^2
              Peak Dynamic = 0.00151923 W
              Subthreshold Leakage = 0.000897736 W
              Subthreshold Leakage with power gating = 0.00051171 W
              Gate Leakage = 0.00070146 W
              Runtime Dynamic = 0.00235639 W

            Arbiter:
              Peak Dynamic = 4.89149e-06 W
              Subthreshold Leakage = 1.12342e-07 W
              Subthreshold Leakage with power gating = 0.00051171 W
              Gate Leakage = 6.39245e-08 W
              Runtime Dynamic = 7.58687e-06 W

*****************************************************************************************
