McPAT (version 1.0 of Aug, 2013) is computing the target processor...
 
Warning: icache array structure cannot satisfy latency constraint.
Warning: icache array structure cannot satisfy latency constraint.
Warning: icache array structure cannot satisfy latency constraint.
Warning: icache array structure cannot satisfy latency constraint.
Warning: icache array structure cannot satisfy latency constraint.
Warning: icache array structure cannot satisfy latency constraint.
Warning: icache array structure cannot satisfy latency constraint.
Warning: icache array structure cannot satisfy latency constraint.
Warning: icache array structure cannot satisfy latency constraint.
Warning: icache array structure cannot satisfy latency constraint.
Warning: icache array structure cannot satisfy latency constraint.
Warning: icache array structure cannot satisfy latency constraint.
Warning: icache array structure cannot satisfy latency constraint.
Warning: icache array structure cannot satisfy latency constraint.
Warning: icache array structure cannot satisfy latency constraint.
Warning: icache array structure cannot satisfy latency constraint.
Warning: icache array structure cannot satisfy latency constraint.
Warning: icache array structure cannot satisfy latency constraint.
Warning: icache array structure cannot satisfy latency constraint.
Warning: icache array structure cannot satisfy latency constraint.
Warning: icache array structure cannot satisfy latency constraint.
Warning: icache array structure cannot satisfy latency constraint.
Warning: icache array structure cannot satisfy latency constraint.
Warning: icache array structure cannot satisfy latency constraint.
Warning: icache array structure cannot satisfy latency constraint.
Warning: icache array structure cannot satisfy latency constraint.
Warning: icache array structure cannot satisfy latency constraint.
Warning: icache array structure cannot satisfy latency constraint.
Warning: icache array structure cannot satisfy latency constraint.
Warning: icache array structure cannot satisfy latency constraint.
Warning: icache array structure cannot satisfy latency constraint.
Warning: icache array structure cannot satisfy latency constraint.

McPAT (version 1.0 of Aug, 2013) results  (current print level is 5)
*****************************************************************************************
  Technology 32 nm
  Using Long Channel Devices When Appropriate
  Interconnect metal projection= aggressive interconnect technology projection
  Core clock Rate(MHz) 2000

*****************************************************************************************
Processor: 
  Area = 441.681 mm^2
  Peak Power = 299.329 W
  Total Leakage = 52.4193 W
  Peak Dynamic = 246.909 W
  Subthreshold Leakage = 38.3864 W
  Subthreshold Leakage with power gating = 14.7272 W
  Gate Leakage = 14.033 W
  Runtime Dynamic = 43.3716 W

  Total Cores: 32 cores 
  Device Type= ITRS high performance device type
    Area = 406.281 mm^2
    Peak Dynamic = 246.358 W
    Subthreshold Leakage = 36.6427 W
    Subthreshold Leakage with power gating = 13.807 W
    Gate Leakage = 13.7959 W
    Runtime Dynamic = 43.0266 W

  Total L2s: 
  Device Type= ITRS high performance device type
    Area = 35.3123 mm^2
    Peak Dynamic = 0.463106 W
    Subthreshold Leakage = 1.74218 W
    Subthreshold Leakage with power gating = 0.782897 W
    Gate Leakage = 0.235996 W
    Runtime Dynamic = 0.210953 W

  Total NoCs (Network/Bus): 
  Device Type= ITRS high performance device type
    Area = 0.0870126 mm^2
    Peak Dynamic = 0.0877398 W
    Subthreshold Leakage = 0.00149161 W
    Subthreshold Leakage with power gating = 0.000850216 W
    Gate Leakage = 0.00102695 W
    Runtime Dynamic = 0.134047 W

*****************************************************************************************
Core:
      Area = 12.6963 mm^2
      Peak Dynamic = 6.30305 W
      Subthreshold Leakage = 1.14508 W
      Subthreshold Leakage with power gating = 0.431469 W
      Gate Leakage = 0.431123 W
      Runtime Dynamic = 0.660327 W

      Instruction Fetch Unit:
        Area = 3.04058 mm^2
        Peak Dynamic = 1.0588 W
        Subthreshold Leakage = 0.226888 W
        Subthreshold Leakage with power gating = 0.0933342 W
        Gate Leakage = 0.082348 W
        Runtime Dynamic = 0.0114275 W

          Instruction Cache:
            Area = 1.60147 mm^2
            Peak Dynamic = 0.0870982 W
            Subthreshold Leakage = 0.093335 W
            Subthreshold Leakage with power gating = 0.044301 W
            Gate Leakage = 0.042566 W
            Runtime Dynamic = 0.00554529 W

          Branch Target Buffer:
            Area = 0.397072 mm^2
            Peak Dynamic = 0.0840866 W
            Subthreshold Leakage = 0.02173 W
            Subthreshold Leakage with power gating = 0.0105914 W
            Gate Leakage = 0.00551055 W
            Runtime Dynamic = 0.000477418 W

          Branch Predictor:
            Area = 0.0686002 mm^2
            Peak Dynamic = 0.0275933 W
            Subthreshold Leakage = 0.00468696 W
            Subthreshold Leakage with power gating = 0.00225328 W
            Gate Leakage = 0.00101062 W
            Runtime Dynamic = 0.000156924 W

              Global Predictor:
                Area = 0.0218979 mm^2
                Peak Dynamic = 0.0077921 W
                Subthreshold Leakage = 0.00178236 W
                Subthreshold Leakage with power gating = 0.000855551 W
                Gate Leakage = 0.000370196 W
                Runtime Dynamic = 4.79692e-05 W

              Local Predictor:
              L1_Local Predictor:
                Area = 0.0128884 mm^2
                Peak Dynamic = 0.00653673 W
                Subthreshold Leakage = 0.000903617 W
                Subthreshold Leakage with power gating = 0.000433877 W
                Gate Leakage = 0.000207902 W
                Runtime Dynamic = 4.13991e-05 W

              L2_Local Predictor:
                Area = 0.00661857 mm^2
                Peak Dynamic = 0.00333484 W
                Subthreshold Leakage = 0.000457985 W
                Subthreshold Leakage with power gating = 0.00021904 W
                Gate Leakage = 0.000109414 W
                Runtime Dynamic = 2.11222e-05 W

              Chooser:
                Area = 0.0218979 mm^2
                Peak Dynamic = 0.0077921 W
                Subthreshold Leakage = 0.00178236 W
                Subthreshold Leakage with power gating = 0.000855551 W
                Gate Leakage = 0.000370196 W
                Runtime Dynamic = 4.79692e-05 W

              RAS:
                Area = 0.00529751 mm^2
                Peak Dynamic = 0.00547237 W
                Subthreshold Leakage = 0.000218626 W
                Subthreshold Leakage with power gating = 0.000108298 W
                Gate Leakage = 6.23254e-05 W
                Runtime Dynamic = 1.95866e-05 W

          Instruction Buffer:
            Area = 0.0111146 mm^2
            Peak Dynamic = 0.290305 W
            Subthreshold Leakage = 0.000365712 W
            Subthreshold Leakage with power gating = 0.000153616 W
            Gate Leakage = 9.42121e-05 W
            Runtime Dynamic = 0.00133702 W

          Instruction Decoder:
            Area = 0.939544 mm^2
            Peak Dynamic = 0.566091 W
            Subthreshold Leakage = 0.102165 W
            Subthreshold Leakage with power gating = 0.0344807 W
            Gate Leakage = 0.028867 W
            Runtime Dynamic = 0.00391075 W

      Renaming Unit:
        Area = 0.187354 mm^2
        Peak Dynamic = 2.14888 W
        Subthreshold Leakage = 0.0176949 W
        Subthreshold Leakage with power gating = 0.00901078 W
        Gate Leakage = 0.0121236 W
        Runtime Dynamic = 0.00277231 W

          Int Front End RAT:
            Area = 0.0583904 mm^2
            Peak Dynamic = 0.386173 W
            Subthreshold Leakage = 0.00151853 W
            Subthreshold Leakage with power gating = 0.000865565 W
            Gate Leakage = 0.000537576 W
            Runtime Dynamic = 0.00251186 W

          FP Front End RAT:
            Area = 0.0852001 mm^2
            Peak Dynamic = 1.61287 W
            Subthreshold Leakage = 0.0114141 W
            Subthreshold Leakage with power gating = 0.00650604 W
            Gate Leakage = 0.00723124 W
            Runtime Dynamic = 1.44895e-06 W

          Free List:
            Area = 0.0209802 mm^2
            Peak Dynamic = 0.0187401 W
            Subthreshold Leakage = 0.000157165 W
            Subthreshold Leakage with power gating = 8.49701e-05 W
            Gate Leakage = 5.50825e-05 W
            Runtime Dynamic = 0.000258942 W

      Load Store Unit:
        Area = 1.98568 mm^2
        Peak Dynamic = 0.650646 W
        Subthreshold Leakage = 0.0912613 W
        Subthreshold Leakage with power gating = 0.0480116 W
        Gate Leakage = 0.0319237 W
        Runtime Dynamic = 0.0154211 W

          Data Cache:
            Area = 1.5316 mm^2
            Peak Dynamic = 0.645261 W
            Subthreshold Leakage = 0.0809419 W
            Subthreshold Leakage with power gating = 0.0432002 W
            Gate Leakage = 0.025643 W
            Runtime Dynamic = 0.00970574 W

          LoadQ:
            Area = 0.0430063 mm^2
            Peak Dynamic = 0.00158882 W
            Subthreshold Leakage = 0.00238113 W
            Subthreshold Leakage with power gating = 0.00135725 W
            Gate Leakage = 0.000855022 W
            Runtime Dynamic = 0.00158877 W

          StoreQ:
            Area = 0.0515274 mm^2
            Peak Dynamic = 0.00206333 W
            Subthreshold Leakage = 0.00333321 W
            Subthreshold Leakage with power gating = 0.00189993 W
            Gate Leakage = 0.00112608 W
            Runtime Dynamic = 0.00412654 W

      Memory Management Unit:
        Area = 0.100456 mm^2
        Peak Dynamic = 0.0693338 W
        Subthreshold Leakage = 0.0106657 W
        Subthreshold Leakage with power gating = 0.00500875 W
        Gate Leakage = 0.0062802 W
        Runtime Dynamic = 0.00159821 W

          Itlb:
            Area = 0.0319967 mm^2
            Peak Dynamic = 0.00159725 W
            Subthreshold Leakage = 0.00232604 W
            Subthreshold Leakage with power gating = 0.00132584 W
            Gate Leakage = 0.000775623 W
            Runtime Dynamic = 0.00025555 W

          Dtlb:
            Area = 0.0456762 mm^2
            Peak Dynamic = 0.00132439 W
            Subthreshold Leakage = 0.00373455 W
            Subthreshold Leakage with power gating = 0.00212869 W
            Gate Leakage = 0.00120491 W
            Runtime Dynamic = 0.0013426 W

      Execution Unit:
        Area = 4.30453 mm^2
        Peak Dynamic = 2.3754 W
        Subthreshold Leakage = 0.36545 W
        Subthreshold Leakage with power gating = 0.129924 W
        Gate Leakage = 0.137753 W
        Runtime Dynamic = 0.629107 W

          Register Files:
            Area = 0.293668 mm^2
            Peak Dynamic = 0.00139121 W
            Subthreshold Leakage = 0.00262543 W
            Subthreshold Leakage with power gating = 0.000992351 W
            Gate Leakage = 0.00090702 W
            Runtime Dynamic = 0.00161299 W

              Integer RF:
                Area = 0.186234 mm^2
                Peak Dynamic = 0.00139075 W
                Subthreshold Leakage = 0.00159167 W
                Subthreshold Leakage with power gating = 0.000581031 W
                Gate Leakage = 0.000571424 W
                Runtime Dynamic = 0.00142224 W

              Floating Point RF:
                Area = 0.107434 mm^2
                Peak Dynamic = 4.63914e-07 W
                Subthreshold Leakage = 0.00103377 W
                Subthreshold Leakage with power gating = 0.00041132 W
                Gate Leakage = 0.000335596 W
                Runtime Dynamic = 0.000190752 W

          Instruction Scheduler:
            Area = 1.11343 mm^2
            Peak Dynamic = 2.36434 W
            Subthreshold Leakage = 0.0299356 W
            Subthreshold Leakage with power gating = 0.0165819 W
            Gate Leakage = 0.0107484 W
            Runtime Dynamic = 0.0203437 W

              Instruction Window:
                Area = 0.519531 mm^2
                Peak Dynamic = 1.01319 W
                Subthreshold Leakage = 0.0210861 W
                Subthreshold Leakage with power gating = 0.0119994 W
                Gate Leakage = 0.00784113 W
                Runtime Dynamic = 0.00915831 W

              FP Instruction Window:
                Area = 0.167689 mm^2
                Peak Dynamic = 0.592068 W
                Subthreshold Leakage = 0.00447456 W
                Subthreshold Leakage with power gating = 0.00253081 W
                Gate Leakage = 0.0017016 W
                Runtime Dynamic = 0.00531573 W

              ROB:
                Area = 0.426209 mm^2
                Peak Dynamic = 0.75908 W
                Subthreshold Leakage = 0.00437495 W
                Subthreshold Leakage with power gating = 0.0020517 W
                Gate Leakage = 0.00120572 W
                Runtime Dynamic = 0.00586966 W

          Integer ALUs (Count: 6 ):
            Area = 0.329609 mm^2
            Peak Dynamic = 0.0058033 W
            Subthreshold Leakage = 0.0927722 W
            Subthreshold Leakage with power gating = 0.0313106 W
            Gate Leakage = 0.0344197 W
            Runtime Dynamic = 0.103775 W

          Floating Point Units (FPUs) (Count: 2 ):
            Area = 2.35571 mm^2
            Peak Dynamic = 2.91599e-06 W
            Subthreshold Leakage = 0.16576 W
            Subthreshold Leakage with power gating = 0.055944 W
            Gate Leakage = 0.0614991 W
            Runtime Dynamic = 0.296665 W

          Complex ALUs (Mul/Div) (Count: 1 ):
            Area = 0.164805 mm^2
            Peak Dynamic = 5.84886e-07 W
            Subthreshold Leakage = 0.0463861 W
            Subthreshold Leakage with power gating = 0.0156553 W
            Gate Leakage = 0.0172098 W
            Runtime Dynamic = 0.197776 W

          Results Broadcast Bus:
            Area Overhead = 0.0245306 mm^2
            Peak Dynamic = 0.0032591 W
            Subthreshold Leakage = 0.0233657 W
            Subthreshold Leakage with power gating = 0.00788591 W
            Gate Leakage = 0.00866896 W
            Runtime Dynamic = 0.00893445 W

*****************************************************************************************
Core:
      Area = 12.6963 mm^2
      Peak Dynamic = 7.75326 W
      Subthreshold Leakage = 1.14508 W
      Subthreshold Leakage with power gating = 0.431469 W
      Gate Leakage = 0.431123 W
      Runtime Dynamic = 1.36933 W

      Instruction Fetch Unit:
        Area = 3.04058 mm^2
        Peak Dynamic = 1.96044 W
        Subthreshold Leakage = 0.226888 W
        Subthreshold Leakage with power gating = 0.0933342 W
        Gate Leakage = 0.082348 W
        Runtime Dynamic = 0.116244 W

          Instruction Cache:
            Area = 1.60147 mm^2
            Peak Dynamic = 0.95274 W
            Subthreshold Leakage = 0.093335 W
            Subthreshold Leakage with power gating = 0.044301 W
            Gate Leakage = 0.042566 W
            Runtime Dynamic = 0.053943 W

          Branch Target Buffer:
            Area = 0.397072 mm^2
            Peak Dynamic = 0.0840866 W
            Subthreshold Leakage = 0.02173 W
            Subthreshold Leakage with power gating = 0.0105914 W
            Gate Leakage = 0.00551055 W
            Runtime Dynamic = 0.00363204 W

          Branch Predictor:
            Area = 0.0686002 mm^2
            Peak Dynamic = 0.0275933 W
            Subthreshold Leakage = 0.00468696 W
            Subthreshold Leakage with power gating = 0.00225328 W
            Gate Leakage = 0.00101062 W
            Runtime Dynamic = 0.00126578 W

              Global Predictor:
                Area = 0.0218979 mm^2
                Peak Dynamic = 0.0077921 W
                Subthreshold Leakage = 0.00178236 W
                Subthreshold Leakage with power gating = 0.000855551 W
                Gate Leakage = 0.000370196 W
                Runtime Dynamic = 0.000367045 W

              Local Predictor:
              L1_Local Predictor:
                Area = 0.0128884 mm^2
                Peak Dynamic = 0.00653673 W
                Subthreshold Leakage = 0.000903617 W
                Subthreshold Leakage with power gating = 0.000433877 W
                Gate Leakage = 0.000207902 W
                Runtime Dynamic = 0.000317378 W

              L2_Local Predictor:
                Area = 0.00661857 mm^2
                Peak Dynamic = 0.00333484 W
                Subthreshold Leakage = 0.000457985 W
                Subthreshold Leakage with power gating = 0.00021904 W
                Gate Leakage = 0.000109414 W
                Runtime Dynamic = 0.00016193 W

              Chooser:
                Area = 0.0218979 mm^2
                Peak Dynamic = 0.0077921 W
                Subthreshold Leakage = 0.00178236 W
                Subthreshold Leakage with power gating = 0.000855551 W
                Gate Leakage = 0.000370196 W
                Runtime Dynamic = 0.000367045 W

              RAS:
                Area = 0.00529751 mm^2
                Peak Dynamic = 0.00547237 W
                Subthreshold Leakage = 0.000218626 W
                Subthreshold Leakage with power gating = 0.000108298 W
                Gate Leakage = 6.23254e-05 W
                Runtime Dynamic = 0.000214313 W

          Instruction Buffer:
            Area = 0.0111146 mm^2
            Peak Dynamic = 0.290305 W
            Subthreshold Leakage = 0.000365712 W
            Subthreshold Leakage with power gating = 0.000153616 W
            Gate Leakage = 9.42121e-05 W
            Runtime Dynamic = 0.014625 W

          Instruction Decoder:
            Area = 0.939544 mm^2
            Peak Dynamic = 0.566091 W
            Subthreshold Leakage = 0.102165 W
            Subthreshold Leakage with power gating = 0.0344807 W
            Gate Leakage = 0.028867 W
            Runtime Dynamic = 0.0427779 W

      Renaming Unit:
        Area = 0.187354 mm^2
        Peak Dynamic = 2.14888 W
        Subthreshold Leakage = 0.0176949 W
        Subthreshold Leakage with power gating = 0.00901078 W
        Gate Leakage = 0.0121236 W
        Runtime Dynamic = 0.0686071 W

          Int Front End RAT:
            Area = 0.0583904 mm^2
            Peak Dynamic = 0.386173 W
            Subthreshold Leakage = 0.00151853 W
            Subthreshold Leakage with power gating = 0.000865565 W
            Gate Leakage = 0.000537576 W
            Runtime Dynamic = 0.02668 W

          FP Front End RAT:
            Area = 0.0852001 mm^2
            Peak Dynamic = 1.61287 W
            Subthreshold Leakage = 0.0114141 W
            Subthreshold Leakage with power gating = 0.00650604 W
            Gate Leakage = 0.00723124 W
            Runtime Dynamic = 0.0386458 W

          Free List:
            Area = 0.0209802 mm^2
            Peak Dynamic = 0.0187401 W
            Subthreshold Leakage = 0.000157165 W
            Subthreshold Leakage with power gating = 8.49701e-05 W
            Gate Leakage = 5.50825e-05 W
            Runtime Dynamic = 0.00328129 W

      Load Store Unit:
        Area = 1.98568 mm^2
        Peak Dynamic = 0.955976 W
        Subthreshold Leakage = 0.0912613 W
        Subthreshold Leakage with power gating = 0.0480116 W
        Gate Leakage = 0.0319237 W
        Runtime Dynamic = 0.128428 W

          Data Cache:
            Area = 1.5316 mm^2
            Peak Dynamic = 0.909699 W
            Subthreshold Leakage = 0.0809419 W
            Subthreshold Leakage with power gating = 0.0432002 W
            Gate Leakage = 0.025643 W
            Runtime Dynamic = 0.0793118 W

          LoadQ:
            Area = 0.0430063 mm^2
            Peak Dynamic = 0.0136536 W
            Subthreshold Leakage = 0.00238113 W
            Subthreshold Leakage with power gating = 0.00135725 W
            Gate Leakage = 0.000855022 W
            Runtime Dynamic = 0.0136536 W

          StoreQ:
            Area = 0.0515274 mm^2
            Peak Dynamic = 0.0177313 W
            Subthreshold Leakage = 0.00333321 W
            Subthreshold Leakage with power gating = 0.00189993 W
            Gate Leakage = 0.00112608 W
            Runtime Dynamic = 0.0354628 W

      Memory Management Unit:
        Area = 0.100456 mm^2
        Peak Dynamic = 0.101845 W
        Subthreshold Leakage = 0.0106657 W
        Subthreshold Leakage with power gating = 0.00500875 W
        Gate Leakage = 0.0062802 W
        Runtime Dynamic = 0.0141029 W

          Itlb:
            Area = 0.0319967 mm^2
            Peak Dynamic = 0.0174718 W
            Subthreshold Leakage = 0.00232604 W
            Subthreshold Leakage with power gating = 0.00132584 W
            Gate Leakage = 0.000775623 W
            Runtime Dynamic = 0.00260287 W

          Dtlb:
            Area = 0.0456762 mm^2
            Peak Dynamic = 0.0113812 W
            Subthreshold Leakage = 0.00373455 W
            Subthreshold Leakage with power gating = 0.00212869 W
            Gate Leakage = 0.00120491 W
            Runtime Dynamic = 0.0114999 W

      Execution Unit:
        Area = 4.30453 mm^2
        Peak Dynamic = 2.58612 W
        Subthreshold Leakage = 0.36545 W
        Subthreshold Leakage with power gating = 0.129924 W
        Gate Leakage = 0.137753 W
        Runtime Dynamic = 1.04194 W

          Register Files:
            Area = 0.293668 mm^2
            Peak Dynamic = 0.0304941 W
            Subthreshold Leakage = 0.00262543 W
            Subthreshold Leakage with power gating = 0.000992351 W
            Gate Leakage = 0.00090702 W
            Runtime Dynamic = 0.017644 W

              Integer RF:
                Area = 0.186234 mm^2
                Peak Dynamic = 0.0193783 W
                Subthreshold Leakage = 0.00159167 W
                Subthreshold Leakage with power gating = 0.000581031 W
                Gate Leakage = 0.000571424 W
                Runtime Dynamic = 0.0155573 W

              Floating Point RF:
                Area = 0.107434 mm^2
                Peak Dynamic = 0.0111159 W
                Subthreshold Leakage = 0.00103377 W
                Subthreshold Leakage with power gating = 0.00041132 W
                Gate Leakage = 0.000335596 W
                Runtime Dynamic = 0.00208671 W

          Instruction Scheduler:
            Area = 1.11343 mm^2
            Peak Dynamic = 2.36434 W
            Subthreshold Leakage = 0.0299356 W
            Subthreshold Leakage with power gating = 0.0165819 W
            Gate Leakage = 0.0107484 W
            Runtime Dynamic = 0.223921 W

              Instruction Window:
                Area = 0.519531 mm^2
                Peak Dynamic = 1.01319 W
                Subthreshold Leakage = 0.0210861 W
                Subthreshold Leakage with power gating = 0.0119994 W
                Gate Leakage = 0.00784113 W
                Runtime Dynamic = 0.100179 W

              FP Instruction Window:
                Area = 0.167689 mm^2
                Peak Dynamic = 0.592068 W
                Subthreshold Leakage = 0.00447456 W
                Subthreshold Leakage with power gating = 0.00253081 W
                Gate Leakage = 0.0017016 W
                Runtime Dynamic = 0.0581469 W

              ROB:
                Area = 0.426209 mm^2
                Peak Dynamic = 0.75908 W
                Subthreshold Leakage = 0.00437495 W
                Subthreshold Leakage with power gating = 0.0020517 W
                Gate Leakage = 0.00120572 W
                Runtime Dynamic = 0.0655955 W

          Integer ALUs (Count: 6 ):
            Area = 0.329609 mm^2
            Peak Dynamic = 0.0534219 W
            Subthreshold Leakage = 0.0927722 W
            Subthreshold Leakage with power gating = 0.0313106 W
            Gate Leakage = 0.0344197 W
            Runtime Dynamic = 0.148156 W

          Floating Point Units (FPUs) (Count: 2 ):
            Area = 2.35571 mm^2
            Peak Dynamic = 0.06987 W
            Subthreshold Leakage = 0.16576 W
            Subthreshold Leakage with power gating = 0.055944 W
            Gate Leakage = 0.0614991 W
            Runtime Dynamic = 0.32449 W

          Complex ALUs (Mul/Div) (Count: 1 ):
            Area = 0.164805 mm^2
            Peak Dynamic = 0.0140168 W
            Subthreshold Leakage = 0.0463861 W
            Subthreshold Leakage with power gating = 0.0156553 W
            Gate Leakage = 0.0172098 W
            Runtime Dynamic = 0.207053 W

          Results Broadcast Bus:
            Area Overhead = 0.0245306 mm^2
            Peak Dynamic = 0.0484225 W
            Subthreshold Leakage = 0.0233657 W
            Subthreshold Leakage with power gating = 0.00788591 W
            Gate Leakage = 0.00866896 W
            Runtime Dynamic = 0.120681 W

*****************************************************************************************
Core:
      Area = 12.6963 mm^2
      Peak Dynamic = 7.75337 W
      Subthreshold Leakage = 1.14508 W
      Subthreshold Leakage with power gating = 0.431469 W
      Gate Leakage = 0.431123 W
      Runtime Dynamic = 1.36937 W

      Instruction Fetch Unit:
        Area = 3.04058 mm^2
        Peak Dynamic = 1.96054 W
        Subthreshold Leakage = 0.226888 W
        Subthreshold Leakage with power gating = 0.0933342 W
        Gate Leakage = 0.082348 W
        Runtime Dynamic = 0.11625 W

          Instruction Cache:
            Area = 1.60147 mm^2
            Peak Dynamic = 0.952832 W
            Subthreshold Leakage = 0.093335 W
            Subthreshold Leakage with power gating = 0.044301 W
            Gate Leakage = 0.042566 W
            Runtime Dynamic = 0.053943 W

          Branch Target Buffer:
            Area = 0.397072 mm^2
            Peak Dynamic = 0.0840866 W
            Subthreshold Leakage = 0.02173 W
            Subthreshold Leakage with power gating = 0.0105914 W
            Gate Leakage = 0.00551055 W
            Runtime Dynamic = 0.00363219 W

          Branch Predictor:
            Area = 0.0686002 mm^2
            Peak Dynamic = 0.0275933 W
            Subthreshold Leakage = 0.00468696 W
            Subthreshold Leakage with power gating = 0.00225328 W
            Gate Leakage = 0.00101062 W
            Runtime Dynamic = 0.00126591 W

              Global Predictor:
                Area = 0.0218979 mm^2
                Peak Dynamic = 0.0077921 W
                Subthreshold Leakage = 0.00178236 W
                Subthreshold Leakage with power gating = 0.000855551 W
                Gate Leakage = 0.000370196 W
                Runtime Dynamic = 0.000367082 W

              Local Predictor:
              L1_Local Predictor:
                Area = 0.0128884 mm^2
                Peak Dynamic = 0.00653673 W
                Subthreshold Leakage = 0.000903617 W
                Subthreshold Leakage with power gating = 0.000433877 W
                Gate Leakage = 0.000207902 W
                Runtime Dynamic = 0.000317417 W

              L2_Local Predictor:
                Area = 0.00661857 mm^2
                Peak Dynamic = 0.00333484 W
                Subthreshold Leakage = 0.000457985 W
                Subthreshold Leakage with power gating = 0.00021904 W
                Gate Leakage = 0.000109414 W
                Runtime Dynamic = 0.000161949 W

              Chooser:
                Area = 0.0218979 mm^2
                Peak Dynamic = 0.0077921 W
                Subthreshold Leakage = 0.00178236 W
                Subthreshold Leakage with power gating = 0.000855551 W
                Gate Leakage = 0.000370196 W
                Runtime Dynamic = 0.000367082 W

              RAS:
                Area = 0.00529751 mm^2
                Peak Dynamic = 0.00547237 W
                Subthreshold Leakage = 0.000218626 W
                Subthreshold Leakage with power gating = 0.000108298 W
                Gate Leakage = 6.23254e-05 W
                Runtime Dynamic = 0.000214332 W

          Instruction Buffer:
            Area = 0.0111146 mm^2
            Peak Dynamic = 0.290305 W
            Subthreshold Leakage = 0.000365712 W
            Subthreshold Leakage with power gating = 0.000153616 W
            Gate Leakage = 9.42121e-05 W
            Runtime Dynamic = 0.0146264 W

          Instruction Decoder:
            Area = 0.939544 mm^2
            Peak Dynamic = 0.566091 W
            Subthreshold Leakage = 0.102165 W
            Subthreshold Leakage with power gating = 0.0344807 W
            Gate Leakage = 0.028867 W
            Runtime Dynamic = 0.042782 W

      Renaming Unit:
        Area = 0.187354 mm^2
        Peak Dynamic = 2.14888 W
        Subthreshold Leakage = 0.0176949 W
        Subthreshold Leakage with power gating = 0.00901078 W
        Gate Leakage = 0.0121236 W
        Runtime Dynamic = 0.0686101 W

          Int Front End RAT:
            Area = 0.0583904 mm^2
            Peak Dynamic = 0.386173 W
            Subthreshold Leakage = 0.00151853 W
            Subthreshold Leakage with power gating = 0.000865565 W
            Gate Leakage = 0.000537576 W
            Runtime Dynamic = 0.0266828 W

          FP Front End RAT:
            Area = 0.0852001 mm^2
            Peak Dynamic = 1.61287 W
            Subthreshold Leakage = 0.0114141 W
            Subthreshold Leakage with power gating = 0.00650604 W
            Gate Leakage = 0.00723124 W
            Runtime Dynamic = 0.0386458 W

          Free List:
            Area = 0.0209802 mm^2
            Peak Dynamic = 0.0187401 W
            Subthreshold Leakage = 0.000157165 W
            Subthreshold Leakage with power gating = 8.49701e-05 W
            Gate Leakage = 5.50825e-05 W
            Runtime Dynamic = 0.00328157 W

      Load Store Unit:
        Area = 1.98568 mm^2
        Peak Dynamic = 0.955979 W
        Subthreshold Leakage = 0.0912613 W
        Subthreshold Leakage with power gating = 0.0480116 W
        Gate Leakage = 0.0319237 W
        Runtime Dynamic = 0.128422 W

          Data Cache:
            Area = 1.5316 mm^2
            Peak Dynamic = 0.909702 W
            Subthreshold Leakage = 0.0809419 W
            Subthreshold Leakage with power gating = 0.0432002 W
            Gate Leakage = 0.025643 W
            Runtime Dynamic = 0.0793051 W

          LoadQ:
            Area = 0.0430063 mm^2
            Peak Dynamic = 0.0136537 W
            Subthreshold Leakage = 0.00238113 W
            Subthreshold Leakage with power gating = 0.00135725 W
            Gate Leakage = 0.000855022 W
            Runtime Dynamic = 0.0136537 W

          StoreQ:
            Area = 0.0515274 mm^2
            Peak Dynamic = 0.0177315 W
            Subthreshold Leakage = 0.00333321 W
            Subthreshold Leakage with power gating = 0.00189993 W
            Gate Leakage = 0.00112608 W
            Runtime Dynamic = 0.035463 W

      Memory Management Unit:
        Area = 0.100456 mm^2
        Peak Dynamic = 0.101846 W
        Subthreshold Leakage = 0.0106657 W
        Subthreshold Leakage with power gating = 0.00500875 W
        Gate Leakage = 0.0062802 W
        Runtime Dynamic = 0.0141039 W

          Itlb:
            Area = 0.0319967 mm^2
            Peak Dynamic = 0.0174735 W
            Subthreshold Leakage = 0.00232604 W
            Subthreshold Leakage with power gating = 0.00132584 W
            Gate Leakage = 0.000775623 W
            Runtime Dynamic = 0.00260287 W

          Dtlb:
            Area = 0.0456762 mm^2
            Peak Dynamic = 0.0113813 W
            Subthreshold Leakage = 0.00373455 W
            Subthreshold Leakage with power gating = 0.00212869 W
            Gate Leakage = 0.00120491 W
            Runtime Dynamic = 0.011501 W

      Execution Unit:
        Area = 4.30453 mm^2
        Peak Dynamic = 2.58613 W
        Subthreshold Leakage = 0.36545 W
        Subthreshold Leakage with power gating = 0.129924 W
        Gate Leakage = 0.137753 W
        Runtime Dynamic = 1.04198 W

          Register Files:
            Area = 0.293668 mm^2
            Peak Dynamic = 0.0304956 W
            Subthreshold Leakage = 0.00262543 W
            Subthreshold Leakage with power gating = 0.000992351 W
            Gate Leakage = 0.00090702 W
            Runtime Dynamic = 0.0176457 W

              Integer RF:
                Area = 0.186234 mm^2
                Peak Dynamic = 0.0193798 W
                Subthreshold Leakage = 0.00159167 W
                Subthreshold Leakage with power gating = 0.000581031 W
                Gate Leakage = 0.000571424 W
                Runtime Dynamic = 0.0155588 W

              Floating Point RF:
                Area = 0.107434 mm^2
                Peak Dynamic = 0.0111159 W
                Subthreshold Leakage = 0.00103377 W
                Subthreshold Leakage with power gating = 0.00041132 W
                Gate Leakage = 0.000335596 W
                Runtime Dynamic = 0.00208691 W

          Instruction Scheduler:
            Area = 1.11343 mm^2
            Peak Dynamic = 2.36434 W
            Subthreshold Leakage = 0.0299356 W
            Subthreshold Leakage with power gating = 0.0165819 W
            Gate Leakage = 0.0107484 W
            Runtime Dynamic = 0.223941 W

              Instruction Window:
                Area = 0.519531 mm^2
                Peak Dynamic = 1.01319 W
                Subthreshold Leakage = 0.0210861 W
                Subthreshold Leakage with power gating = 0.0119994 W
                Gate Leakage = 0.00784113 W
                Runtime Dynamic = 0.100188 W

              FP Instruction Window:
                Area = 0.167689 mm^2
                Peak Dynamic = 0.592068 W
                Subthreshold Leakage = 0.00447456 W
                Subthreshold Leakage with power gating = 0.00253081 W
                Gate Leakage = 0.0017016 W
                Runtime Dynamic = 0.0581524 W

              ROB:
                Area = 0.426209 mm^2
                Peak Dynamic = 0.75908 W
                Subthreshold Leakage = 0.00437495 W
                Subthreshold Leakage with power gating = 0.0020517 W
                Gate Leakage = 0.00120572 W
                Runtime Dynamic = 0.0656004 W

          Integer ALUs (Count: 6 ):
            Area = 0.329609 mm^2
            Peak Dynamic = 0.0534282 W
            Subthreshold Leakage = 0.0927722 W
            Subthreshold Leakage with power gating = 0.0313106 W
            Gate Leakage = 0.0344197 W
            Runtime Dynamic = 0.14816 W

          Floating Point Units (FPUs) (Count: 2 ):
            Area = 2.35571 mm^2
            Peak Dynamic = 0.06987 W
            Subthreshold Leakage = 0.16576 W
            Subthreshold Leakage with power gating = 0.055944 W
            Gate Leakage = 0.0614991 W
            Runtime Dynamic = 0.32449 W

          Complex ALUs (Mul/Div) (Count: 1 ):
            Area = 0.164805 mm^2
            Peak Dynamic = 0.0140168 W
            Subthreshold Leakage = 0.0463861 W
            Subthreshold Leakage with power gating = 0.0156553 W
            Gate Leakage = 0.0172098 W
            Runtime Dynamic = 0.207053 W

          Results Broadcast Bus:
            Area Overhead = 0.0245306 mm^2
            Peak Dynamic = 0.048426 W
            Subthreshold Leakage = 0.0233657 W
            Subthreshold Leakage with power gating = 0.00788591 W
            Gate Leakage = 0.00866896 W
            Runtime Dynamic = 0.12069 W

*****************************************************************************************
Core:
      Area = 12.6963 mm^2
      Peak Dynamic = 7.74537 W
      Subthreshold Leakage = 1.14508 W
      Subthreshold Leakage with power gating = 0.431469 W
      Gate Leakage = 0.431123 W
      Runtime Dynamic = 1.36692 W

      Instruction Fetch Unit:
        Area = 3.04058 mm^2
        Peak Dynamic = 1.95526 W
        Subthreshold Leakage = 0.226888 W
        Subthreshold Leakage with power gating = 0.0933342 W
        Gate Leakage = 0.082348 W
        Runtime Dynamic = 0.115661 W

          Instruction Cache:
            Area = 1.60147 mm^2
            Peak Dynamic = 0.94777 W
            Subthreshold Leakage = 0.093335 W
            Subthreshold Leakage with power gating = 0.044301 W
            Gate Leakage = 0.042566 W
            Runtime Dynamic = 0.0536913 W

          Branch Target Buffer:
            Area = 0.397072 mm^2
            Peak Dynamic = 0.0840866 W
            Subthreshold Leakage = 0.02173 W
            Subthreshold Leakage with power gating = 0.0105914 W
            Gate Leakage = 0.00551055 W
            Runtime Dynamic = 0.00360843 W

          Branch Predictor:
            Area = 0.0686002 mm^2
            Peak Dynamic = 0.0275933 W
            Subthreshold Leakage = 0.00468696 W
            Subthreshold Leakage with power gating = 0.00225328 W
            Gate Leakage = 0.00101062 W
            Runtime Dynamic = 0.00125765 W

              Global Predictor:
                Area = 0.0218979 mm^2
                Peak Dynamic = 0.0077921 W
                Subthreshold Leakage = 0.00178236 W
                Subthreshold Leakage with power gating = 0.000855551 W
                Gate Leakage = 0.000370196 W
                Runtime Dynamic = 0.000364602 W

              Local Predictor:
              L1_Local Predictor:
                Area = 0.0128884 mm^2
                Peak Dynamic = 0.00653673 W
                Subthreshold Leakage = 0.000903617 W
                Subthreshold Leakage with power gating = 0.000433877 W
                Gate Leakage = 0.000207902 W
                Runtime Dynamic = 0.00031525 W

              L2_Local Predictor:
                Area = 0.00661857 mm^2
                Peak Dynamic = 0.00333484 W
                Subthreshold Leakage = 0.000457985 W
                Subthreshold Leakage with power gating = 0.00021904 W
                Gate Leakage = 0.000109414 W
                Runtime Dynamic = 0.000160844 W

              Chooser:
                Area = 0.0218979 mm^2
                Peak Dynamic = 0.0077921 W
                Subthreshold Leakage = 0.00178236 W
                Subthreshold Leakage with power gating = 0.000855551 W
                Gate Leakage = 0.000370196 W
                Runtime Dynamic = 0.000364602 W

              RAS:
                Area = 0.00529751 mm^2
                Peak Dynamic = 0.00547237 W
                Subthreshold Leakage = 0.000218626 W
                Subthreshold Leakage with power gating = 0.000108298 W
                Gate Leakage = 6.23254e-05 W
                Runtime Dynamic = 0.000213192 W

          Instruction Buffer:
            Area = 0.0111146 mm^2
            Peak Dynamic = 0.290305 W
            Subthreshold Leakage = 0.000365712 W
            Subthreshold Leakage with power gating = 0.000153616 W
            Gate Leakage = 9.42121e-05 W
            Runtime Dynamic = 0.0145488 W

          Instruction Decoder:
            Area = 0.939544 mm^2
            Peak Dynamic = 0.566091 W
            Subthreshold Leakage = 0.102165 W
            Subthreshold Leakage with power gating = 0.0344807 W
            Gate Leakage = 0.028867 W
            Runtime Dynamic = 0.0425548 W

      Renaming Unit:
        Area = 0.187354 mm^2
        Peak Dynamic = 2.14888 W
        Subthreshold Leakage = 0.0176949 W
        Subthreshold Leakage with power gating = 0.00901078 W
        Gate Leakage = 0.0121236 W
        Runtime Dynamic = 0.0684479 W

          Int Front End RAT:
            Area = 0.0583904 mm^2
            Peak Dynamic = 0.386173 W
            Subthreshold Leakage = 0.00151853 W
            Subthreshold Leakage with power gating = 0.000865565 W
            Gate Leakage = 0.000537576 W
            Runtime Dynamic = 0.0265355 W

          FP Front End RAT:
            Area = 0.0852001 mm^2
            Peak Dynamic = 1.61287 W
            Subthreshold Leakage = 0.0114141 W
            Subthreshold Leakage with power gating = 0.00650604 W
            Gate Leakage = 0.00723124 W
            Runtime Dynamic = 0.0386458 W

          Free List:
            Area = 0.0209802 mm^2
            Peak Dynamic = 0.0187401 W
            Subthreshold Leakage = 0.000157165 W
            Subthreshold Leakage with power gating = 8.49701e-05 W
            Gate Leakage = 5.50825e-05 W
            Runtime Dynamic = 0.00326652 W

      Load Store Unit:
        Area = 1.98568 mm^2
        Peak Dynamic = 0.954087 W
        Subthreshold Leakage = 0.0912613 W
        Subthreshold Leakage with power gating = 0.0480116 W
        Gate Leakage = 0.0319237 W
        Runtime Dynamic = 0.128851 W

          Data Cache:
            Area = 1.5316 mm^2
            Peak Dynamic = 0.908063 W
            Subthreshold Leakage = 0.0809419 W
            Subthreshold Leakage with power gating = 0.0432002 W
            Gate Leakage = 0.025643 W
            Runtime Dynamic = 0.0800031 W

          LoadQ:
            Area = 0.0430063 mm^2
            Peak Dynamic = 0.0135789 W
            Subthreshold Leakage = 0.00238113 W
            Subthreshold Leakage with power gating = 0.00135725 W
            Gate Leakage = 0.000855022 W
            Runtime Dynamic = 0.013579 W

          StoreQ:
            Area = 0.0515274 mm^2
            Peak Dynamic = 0.0176344 W
            Subthreshold Leakage = 0.00333321 W
            Subthreshold Leakage with power gating = 0.00189993 W
            Gate Leakage = 0.00112608 W
            Runtime Dynamic = 0.035269 W

      Memory Management Unit:
        Area = 0.100456 mm^2
        Peak Dynamic = 0.101651 W
        Subthreshold Leakage = 0.0106657 W
        Subthreshold Leakage with power gating = 0.00500875 W
        Gate Leakage = 0.0062802 W
        Runtime Dynamic = 0.0140634 W

          Itlb:
            Area = 0.0319967 mm^2
            Peak Dynamic = 0.0173807 W
            Subthreshold Leakage = 0.00232604 W
            Subthreshold Leakage with power gating = 0.00132584 W
            Gate Leakage = 0.000775623 W
            Runtime Dynamic = 0.00259247 W

          Dtlb:
            Area = 0.0456762 mm^2
            Peak Dynamic = 0.011319 W
            Subthreshold Leakage = 0.00373455 W
            Subthreshold Leakage with power gating = 0.00212869 W
            Gate Leakage = 0.00120491 W
            Runtime Dynamic = 0.0114708 W

      Execution Unit:
        Area = 4.30453 mm^2
        Peak Dynamic = 2.58549 W
        Subthreshold Leakage = 0.36545 W
        Subthreshold Leakage with power gating = 0.129924 W
        Gate Leakage = 0.137753 W
        Runtime Dynamic = 1.0399 W

          Register Files:
            Area = 0.293668 mm^2
            Peak Dynamic = 0.0304147 W
            Subthreshold Leakage = 0.00262543 W
            Subthreshold Leakage with power gating = 0.000992351 W
            Gate Leakage = 0.00090702 W
            Runtime Dynamic = 0.017552 W

              Integer RF:
                Area = 0.186234 mm^2
                Peak Dynamic = 0.0192989 W
                Subthreshold Leakage = 0.00159167 W
                Subthreshold Leakage with power gating = 0.000581031 W
                Gate Leakage = 0.000571424 W
                Runtime Dynamic = 0.0154762 W

              Floating Point RF:
                Area = 0.107434 mm^2
                Peak Dynamic = 0.0111159 W
                Subthreshold Leakage = 0.00103377 W
                Subthreshold Leakage with power gating = 0.00041132 W
                Gate Leakage = 0.000335596 W
                Runtime Dynamic = 0.00207582 W

          Instruction Scheduler:
            Area = 1.11343 mm^2
            Peak Dynamic = 2.36434 W
            Subthreshold Leakage = 0.0299356 W
            Subthreshold Leakage with power gating = 0.0165819 W
            Gate Leakage = 0.0107484 W
            Runtime Dynamic = 0.222765 W

              Instruction Window:
                Area = 0.519531 mm^2
                Peak Dynamic = 1.01319 W
                Subthreshold Leakage = 0.0210861 W
                Subthreshold Leakage with power gating = 0.0119994 W
                Gate Leakage = 0.00784113 W
                Runtime Dynamic = 0.0996561 W

              FP Instruction Window:
                Area = 0.167689 mm^2
                Peak Dynamic = 0.592068 W
                Subthreshold Leakage = 0.00447456 W
                Subthreshold Leakage with power gating = 0.00253081 W
                Gate Leakage = 0.0017016 W
                Runtime Dynamic = 0.0578436 W

              ROB:
                Area = 0.426209 mm^2
                Peak Dynamic = 0.75908 W
                Subthreshold Leakage = 0.00437495 W
                Subthreshold Leakage with power gating = 0.0020517 W
                Gate Leakage = 0.00120572 W
                Runtime Dynamic = 0.0652651 W

          Integer ALUs (Count: 6 ):
            Area = 0.329609 mm^2
            Peak Dynamic = 0.0530904 W
            Subthreshold Leakage = 0.0927722 W
            Subthreshold Leakage with power gating = 0.0313106 W
            Gate Leakage = 0.0344197 W
            Runtime Dynamic = 0.147873 W

          Floating Point Units (FPUs) (Count: 2 ):
            Area = 2.35571 mm^2
            Peak Dynamic = 0.06987 W
            Subthreshold Leakage = 0.16576 W
            Subthreshold Leakage with power gating = 0.055944 W
            Gate Leakage = 0.0614991 W
            Runtime Dynamic = 0.32449 W

          Complex ALUs (Mul/Div) (Count: 1 ):
            Area = 0.164805 mm^2
            Peak Dynamic = 0.0140168 W
            Subthreshold Leakage = 0.0463861 W
            Subthreshold Leakage with power gating = 0.0156553 W
            Gate Leakage = 0.0172098 W
            Runtime Dynamic = 0.207053 W

          Results Broadcast Bus:
            Area Overhead = 0.0245306 mm^2
            Peak Dynamic = 0.0482364 W
            Subthreshold Leakage = 0.0233657 W
            Subthreshold Leakage with power gating = 0.00788591 W
            Gate Leakage = 0.00866896 W
            Runtime Dynamic = 0.120165 W

*****************************************************************************************
Core:
      Area = 12.6963 mm^2
      Peak Dynamic = 7.743 W
      Subthreshold Leakage = 1.14508 W
      Subthreshold Leakage with power gating = 0.431469 W
      Gate Leakage = 0.431123 W
      Runtime Dynamic = 1.365 W

      Instruction Fetch Unit:
        Area = 3.04058 mm^2
        Peak Dynamic = 1.95375 W
        Subthreshold Leakage = 0.226888 W
        Subthreshold Leakage with power gating = 0.0933342 W
        Gate Leakage = 0.082348 W
        Runtime Dynamic = 0.115436 W

          Instruction Cache:
            Area = 1.60147 mm^2
            Peak Dynamic = 0.946317 W
            Subthreshold Leakage = 0.093335 W
            Subthreshold Leakage with power gating = 0.044301 W
            Gate Leakage = 0.042566 W
            Runtime Dynamic = 0.0535638 W

          Branch Target Buffer:
            Area = 0.397072 mm^2
            Peak Dynamic = 0.0840866 W
            Subthreshold Leakage = 0.02173 W
            Subthreshold Leakage with power gating = 0.0105914 W
            Gate Leakage = 0.00551055 W
            Runtime Dynamic = 0.00360141 W

          Branch Predictor:
            Area = 0.0686002 mm^2
            Peak Dynamic = 0.0275933 W
            Subthreshold Leakage = 0.00468696 W
            Subthreshold Leakage with power gating = 0.00225328 W
            Gate Leakage = 0.00101062 W
            Runtime Dynamic = 0.00125518 W

              Global Predictor:
                Area = 0.0218979 mm^2
                Peak Dynamic = 0.0077921 W
                Subthreshold Leakage = 0.00178236 W
                Subthreshold Leakage with power gating = 0.000855551 W
                Gate Leakage = 0.000370196 W
                Runtime Dynamic = 0.000363859 W

              Local Predictor:
              L1_Local Predictor:
                Area = 0.0128884 mm^2
                Peak Dynamic = 0.00653673 W
                Subthreshold Leakage = 0.000903617 W
                Subthreshold Leakage with power gating = 0.000433877 W
                Gate Leakage = 0.000207902 W
                Runtime Dynamic = 0.000314597 W

              L2_Local Predictor:
                Area = 0.00661857 mm^2
                Peak Dynamic = 0.00333484 W
                Subthreshold Leakage = 0.000457985 W
                Subthreshold Leakage with power gating = 0.00021904 W
                Gate Leakage = 0.000109414 W
                Runtime Dynamic = 0.000160511 W

              Chooser:
                Area = 0.0218979 mm^2
                Peak Dynamic = 0.0077921 W
                Subthreshold Leakage = 0.00178236 W
                Subthreshold Leakage with power gating = 0.000855551 W
                Gate Leakage = 0.000370196 W
                Runtime Dynamic = 0.000363859 W

              RAS:
                Area = 0.00529751 mm^2
                Peak Dynamic = 0.00547237 W
                Subthreshold Leakage = 0.000218626 W
                Subthreshold Leakage with power gating = 0.000108298 W
                Gate Leakage = 6.23254e-05 W
                Runtime Dynamic = 0.000212867 W

          Instruction Buffer:
            Area = 0.0111146 mm^2
            Peak Dynamic = 0.290305 W
            Subthreshold Leakage = 0.000365712 W
            Subthreshold Leakage with power gating = 0.000153616 W
            Gate Leakage = 9.42121e-05 W
            Runtime Dynamic = 0.0145264 W

          Instruction Decoder:
            Area = 0.939544 mm^2
            Peak Dynamic = 0.566091 W
            Subthreshold Leakage = 0.102165 W
            Subthreshold Leakage with power gating = 0.0344807 W
            Gate Leakage = 0.028867 W
            Runtime Dynamic = 0.0424895 W

      Renaming Unit:
        Area = 0.187354 mm^2
        Peak Dynamic = 2.14888 W
        Subthreshold Leakage = 0.0176949 W
        Subthreshold Leakage with power gating = 0.00901078 W
        Gate Leakage = 0.0121236 W
        Runtime Dynamic = 0.0684013 W

          Int Front End RAT:
            Area = 0.0583904 mm^2
            Peak Dynamic = 0.386173 W
            Subthreshold Leakage = 0.00151853 W
            Subthreshold Leakage with power gating = 0.000865565 W
            Gate Leakage = 0.000537576 W
            Runtime Dynamic = 0.0264932 W

          FP Front End RAT:
            Area = 0.0852001 mm^2
            Peak Dynamic = 1.61287 W
            Subthreshold Leakage = 0.0114141 W
            Subthreshold Leakage with power gating = 0.00650604 W
            Gate Leakage = 0.00723124 W
            Runtime Dynamic = 0.0386458 W

          Free List:
            Area = 0.0209802 mm^2
            Peak Dynamic = 0.0187401 W
            Subthreshold Leakage = 0.000157165 W
            Subthreshold Leakage with power gating = 8.49701e-05 W
            Gate Leakage = 5.50825e-05 W
            Runtime Dynamic = 0.0032622 W

      Load Store Unit:
        Area = 1.98568 mm^2
        Peak Dynamic = 0.953479 W
        Subthreshold Leakage = 0.0912613 W
        Subthreshold Leakage with power gating = 0.0480116 W
        Gate Leakage = 0.0319237 W
        Runtime Dynamic = 0.127844 W

          Data Cache:
            Area = 1.5316 mm^2
            Peak Dynamic = 0.907536 W
            Subthreshold Leakage = 0.0809419 W
            Subthreshold Leakage with power gating = 0.0432002 W
            Gate Leakage = 0.025643 W
            Runtime Dynamic = 0.0790828 W

          LoadQ:
            Area = 0.0430063 mm^2
            Peak Dynamic = 0.0135549 W
            Subthreshold Leakage = 0.00238113 W
            Subthreshold Leakage with power gating = 0.00135725 W
            Gate Leakage = 0.000855022 W
            Runtime Dynamic = 0.0135549 W

          StoreQ:
            Area = 0.0515274 mm^2
            Peak Dynamic = 0.0176032 W
            Subthreshold Leakage = 0.00333321 W
            Subthreshold Leakage with power gating = 0.00189993 W
            Gate Leakage = 0.00112608 W
            Runtime Dynamic = 0.0352064 W

      Memory Management Unit:
        Area = 0.100456 mm^2
        Peak Dynamic = 0.101591 W
        Subthreshold Leakage = 0.0106657 W
        Subthreshold Leakage with power gating = 0.00500875 W
        Gate Leakage = 0.0062802 W
        Runtime Dynamic = 0.0140205 W

          Itlb:
            Area = 0.0319967 mm^2
            Peak Dynamic = 0.017354 W
            Subthreshold Leakage = 0.00232604 W
            Subthreshold Leakage with power gating = 0.00132584 W
            Gate Leakage = 0.000775623 W
            Runtime Dynamic = 0.00258934 W

          Dtlb:
            Area = 0.0456762 mm^2
            Peak Dynamic = 0.0112989 W
            Subthreshold Leakage = 0.00373455 W
            Subthreshold Leakage with power gating = 0.00212869 W
            Gate Leakage = 0.00120491 W
            Runtime Dynamic = 0.0114311 W

      Execution Unit:
        Area = 4.30453 mm^2
        Peak Dynamic = 2.58531 W
        Subthreshold Leakage = 0.36545 W
        Subthreshold Leakage with power gating = 0.129924 W
        Gate Leakage = 0.137753 W
        Runtime Dynamic = 1.03929 W

          Register Files:
            Area = 0.293668 mm^2
            Peak Dynamic = 0.0303915 W
            Subthreshold Leakage = 0.00262543 W
            Subthreshold Leakage with power gating = 0.000992351 W
            Gate Leakage = 0.00090702 W
            Runtime Dynamic = 0.017525 W

              Integer RF:
                Area = 0.186234 mm^2
                Peak Dynamic = 0.0192756 W
                Subthreshold Leakage = 0.00159167 W
                Subthreshold Leakage with power gating = 0.000581031 W
                Gate Leakage = 0.000571424 W
                Runtime Dynamic = 0.0154524 W

              Floating Point RF:
                Area = 0.107434 mm^2
                Peak Dynamic = 0.0111159 W
                Subthreshold Leakage = 0.00103377 W
                Subthreshold Leakage with power gating = 0.00041132 W
                Gate Leakage = 0.000335596 W
                Runtime Dynamic = 0.00207262 W

          Instruction Scheduler:
            Area = 1.11343 mm^2
            Peak Dynamic = 2.36434 W
            Subthreshold Leakage = 0.0299356 W
            Subthreshold Leakage with power gating = 0.0165819 W
            Gate Leakage = 0.0107484 W
            Runtime Dynamic = 0.222425 W

              Instruction Window:
                Area = 0.519531 mm^2
                Peak Dynamic = 1.01319 W
                Subthreshold Leakage = 0.0210861 W
                Subthreshold Leakage with power gating = 0.0119994 W
                Gate Leakage = 0.00784113 W
                Runtime Dynamic = 0.0995031 W

              FP Instruction Window:
                Area = 0.167689 mm^2
                Peak Dynamic = 0.592068 W
                Subthreshold Leakage = 0.00447456 W
                Subthreshold Leakage with power gating = 0.00253081 W
                Gate Leakage = 0.0017016 W
                Runtime Dynamic = 0.0577548 W

              ROB:
                Area = 0.426209 mm^2
                Peak Dynamic = 0.75908 W
                Subthreshold Leakage = 0.00437495 W
                Subthreshold Leakage with power gating = 0.0020517 W
                Gate Leakage = 0.00120572 W
                Runtime Dynamic = 0.0651672 W

          Integer ALUs (Count: 6 ):
            Area = 0.329609 mm^2
            Peak Dynamic = 0.0529934 W
            Subthreshold Leakage = 0.0927722 W
            Subthreshold Leakage with power gating = 0.0313106 W
            Gate Leakage = 0.0344197 W
            Runtime Dynamic = 0.147789 W

          Floating Point Units (FPUs) (Count: 2 ):
            Area = 2.35571 mm^2
            Peak Dynamic = 0.06987 W
            Subthreshold Leakage = 0.16576 W
            Subthreshold Leakage with power gating = 0.055944 W
            Gate Leakage = 0.0614991 W
            Runtime Dynamic = 0.32449 W

          Complex ALUs (Mul/Div) (Count: 1 ):
            Area = 0.164805 mm^2
            Peak Dynamic = 0.0140168 W
            Subthreshold Leakage = 0.0463861 W
            Subthreshold Leakage with power gating = 0.0156553 W
            Gate Leakage = 0.0172098 W
            Runtime Dynamic = 0.207053 W

          Results Broadcast Bus:
            Area Overhead = 0.0245306 mm^2
            Peak Dynamic = 0.0481819 W
            Subthreshold Leakage = 0.0233657 W
            Subthreshold Leakage with power gating = 0.00788591 W
            Gate Leakage = 0.00866896 W
            Runtime Dynamic = 0.120012 W

*****************************************************************************************
Core:
      Area = 12.6963 mm^2
      Peak Dynamic = 7.74303 W
      Subthreshold Leakage = 1.14508 W
      Subthreshold Leakage with power gating = 0.431469 W
      Gate Leakage = 0.431123 W
      Runtime Dynamic = 1.36488 W

      Instruction Fetch Unit:
        Area = 3.04058 mm^2
        Peak Dynamic = 1.95377 W
        Subthreshold Leakage = 0.226888 W
        Subthreshold Leakage with power gating = 0.0933342 W
        Gate Leakage = 0.082348 W
        Runtime Dynamic = 0.115439 W

          Instruction Cache:
            Area = 1.60147 mm^2
            Peak Dynamic = 0.946333 W
            Subthreshold Leakage = 0.093335 W
            Subthreshold Leakage with power gating = 0.044301 W
            Gate Leakage = 0.042566 W
            Runtime Dynamic = 0.0535649 W

          Branch Target Buffer:
            Area = 0.397072 mm^2
            Peak Dynamic = 0.0840866 W
            Subthreshold Leakage = 0.02173 W
            Subthreshold Leakage with power gating = 0.0105914 W
            Gate Leakage = 0.00551055 W
            Runtime Dynamic = 0.00360156 W

          Branch Predictor:
            Area = 0.0686002 mm^2
            Peak Dynamic = 0.0275933 W
            Subthreshold Leakage = 0.00468696 W
            Subthreshold Leakage with power gating = 0.00225328 W
            Gate Leakage = 0.00101062 W
            Runtime Dynamic = 0.00125525 W

              Global Predictor:
                Area = 0.0218979 mm^2
                Peak Dynamic = 0.0077921 W
                Subthreshold Leakage = 0.00178236 W
                Subthreshold Leakage with power gating = 0.000855551 W
                Gate Leakage = 0.000370196 W
                Runtime Dynamic = 0.000363878 W

              Local Predictor:
              L1_Local Predictor:
                Area = 0.0128884 mm^2
                Peak Dynamic = 0.00653673 W
                Subthreshold Leakage = 0.000903617 W
                Subthreshold Leakage with power gating = 0.000433877 W
                Gate Leakage = 0.000207902 W
                Runtime Dynamic = 0.000314616 W

              L2_Local Predictor:
                Area = 0.00661857 mm^2
                Peak Dynamic = 0.00333484 W
                Subthreshold Leakage = 0.000457985 W
                Subthreshold Leakage with power gating = 0.00021904 W
                Gate Leakage = 0.000109414 W
                Runtime Dynamic = 0.00016052 W

              Chooser:
                Area = 0.0218979 mm^2
                Peak Dynamic = 0.0077921 W
                Subthreshold Leakage = 0.00178236 W
                Subthreshold Leakage with power gating = 0.000855551 W
                Gate Leakage = 0.000370196 W
                Runtime Dynamic = 0.000363878 W

              RAS:
                Area = 0.00529751 mm^2
                Peak Dynamic = 0.00547237 W
                Subthreshold Leakage = 0.000218626 W
                Subthreshold Leakage with power gating = 0.000108298 W
                Gate Leakage = 6.23254e-05 W
                Runtime Dynamic = 0.000212873 W

          Instruction Buffer:
            Area = 0.0111146 mm^2
            Peak Dynamic = 0.290305 W
            Subthreshold Leakage = 0.000365712 W
            Subthreshold Leakage with power gating = 0.000153616 W
            Gate Leakage = 9.42121e-05 W
            Runtime Dynamic = 0.0145267 W

          Instruction Decoder:
            Area = 0.939544 mm^2
            Peak Dynamic = 0.566091 W
            Subthreshold Leakage = 0.102165 W
            Subthreshold Leakage with power gating = 0.0344807 W
            Gate Leakage = 0.028867 W
            Runtime Dynamic = 0.0424903 W

      Renaming Unit:
        Area = 0.187354 mm^2
        Peak Dynamic = 2.14888 W
        Subthreshold Leakage = 0.0176949 W
        Subthreshold Leakage with power gating = 0.00901078 W
        Gate Leakage = 0.0121236 W
        Runtime Dynamic = 0.0684018 W

          Int Front End RAT:
            Area = 0.0583904 mm^2
            Peak Dynamic = 0.386173 W
            Subthreshold Leakage = 0.00151853 W
            Subthreshold Leakage with power gating = 0.000865565 W
            Gate Leakage = 0.000537576 W
            Runtime Dynamic = 0.0264938 W

          FP Front End RAT:
            Area = 0.0852001 mm^2
            Peak Dynamic = 1.61287 W
            Subthreshold Leakage = 0.0114141 W
            Subthreshold Leakage with power gating = 0.00650604 W
            Gate Leakage = 0.00723124 W
            Runtime Dynamic = 0.0386458 W

          Free List:
            Area = 0.0209802 mm^2
            Peak Dynamic = 0.0187401 W
            Subthreshold Leakage = 0.000157165 W
            Subthreshold Leakage with power gating = 8.49701e-05 W
            Gate Leakage = 5.50825e-05 W
            Runtime Dynamic = 0.00326225 W

      Load Store Unit:
        Area = 1.98568 mm^2
        Peak Dynamic = 0.953485 W
        Subthreshold Leakage = 0.0912613 W
        Subthreshold Leakage with power gating = 0.0480116 W
        Gate Leakage = 0.0319237 W
        Runtime Dynamic = 0.127721 W

          Data Cache:
            Area = 1.5316 mm^2
            Peak Dynamic = 0.907542 W
            Subthreshold Leakage = 0.0809419 W
            Subthreshold Leakage with power gating = 0.0432002 W
            Gate Leakage = 0.025643 W
            Runtime Dynamic = 0.0789586 W

          LoadQ:
            Area = 0.0430063 mm^2
            Peak Dynamic = 0.0135551 W
            Subthreshold Leakage = 0.00238113 W
            Subthreshold Leakage with power gating = 0.00135725 W
            Gate Leakage = 0.000855022 W
            Runtime Dynamic = 0.0135552 W

          StoreQ:
            Area = 0.0515274 mm^2
            Peak Dynamic = 0.0176035 W
            Subthreshold Leakage = 0.00333321 W
            Subthreshold Leakage with power gating = 0.00189993 W
            Gate Leakage = 0.00112608 W
            Runtime Dynamic = 0.0352071 W

      Memory Management Unit:
        Area = 0.100456 mm^2
        Peak Dynamic = 0.101591 W
        Subthreshold Leakage = 0.0106657 W
        Subthreshold Leakage with power gating = 0.00500875 W
        Gate Leakage = 0.0062802 W
        Runtime Dynamic = 0.0140152 W

          Itlb:
            Area = 0.0319967 mm^2
            Peak Dynamic = 0.0173543 W
            Subthreshold Leakage = 0.00232604 W
            Subthreshold Leakage with power gating = 0.00132584 W
            Gate Leakage = 0.000775623 W
            Runtime Dynamic = 0.00258939 W

          Dtlb:
            Area = 0.0456762 mm^2
            Peak Dynamic = 0.0112991 W
            Subthreshold Leakage = 0.00373455 W
            Subthreshold Leakage with power gating = 0.00212869 W
            Gate Leakage = 0.00120491 W
            Runtime Dynamic = 0.0114257 W

      Execution Unit:
        Area = 4.30453 mm^2
        Peak Dynamic = 2.58531 W
        Subthreshold Leakage = 0.36545 W
        Subthreshold Leakage with power gating = 0.129924 W
        Gate Leakage = 0.137753 W
        Runtime Dynamic = 1.0393 W

          Register Files:
            Area = 0.293668 mm^2
            Peak Dynamic = 0.0303918 W
            Subthreshold Leakage = 0.00262543 W
            Subthreshold Leakage with power gating = 0.000992351 W
            Gate Leakage = 0.00090702 W
            Runtime Dynamic = 0.0175254 W

              Integer RF:
                Area = 0.186234 mm^2
                Peak Dynamic = 0.0192759 W
                Subthreshold Leakage = 0.00159167 W
                Subthreshold Leakage with power gating = 0.000581031 W
                Gate Leakage = 0.000571424 W
                Runtime Dynamic = 0.0154527 W

              Floating Point RF:
                Area = 0.107434 mm^2
                Peak Dynamic = 0.0111159 W
                Subthreshold Leakage = 0.00103377 W
                Subthreshold Leakage with power gating = 0.00041132 W
                Gate Leakage = 0.000335596 W
                Runtime Dynamic = 0.00207267 W

          Instruction Scheduler:
            Area = 1.11343 mm^2
            Peak Dynamic = 2.36434 W
            Subthreshold Leakage = 0.0299356 W
            Subthreshold Leakage with power gating = 0.0165819 W
            Gate Leakage = 0.0107484 W
            Runtime Dynamic = 0.22243 W

              Instruction Window:
                Area = 0.519531 mm^2
                Peak Dynamic = 1.01319 W
                Subthreshold Leakage = 0.0210861 W
                Subthreshold Leakage with power gating = 0.0119994 W
                Gate Leakage = 0.00784113 W
                Runtime Dynamic = 0.099505 W

              FP Instruction Window:
                Area = 0.167689 mm^2
                Peak Dynamic = 0.592068 W
                Subthreshold Leakage = 0.00447456 W
                Subthreshold Leakage with power gating = 0.00253081 W
                Gate Leakage = 0.0017016 W
                Runtime Dynamic = 0.0577559 W

              ROB:
                Area = 0.426209 mm^2
                Peak Dynamic = 0.75908 W
                Subthreshold Leakage = 0.00437495 W
                Subthreshold Leakage with power gating = 0.0020517 W
                Gate Leakage = 0.00120572 W
                Runtime Dynamic = 0.0651686 W

          Integer ALUs (Count: 6 ):
            Area = 0.329609 mm^2
            Peak Dynamic = 0.0529947 W
            Subthreshold Leakage = 0.0927722 W
            Subthreshold Leakage with power gating = 0.0313106 W
            Gate Leakage = 0.0344197 W
            Runtime Dynamic = 0.147791 W

          Floating Point Units (FPUs) (Count: 2 ):
            Area = 2.35571 mm^2
            Peak Dynamic = 0.06987 W
            Subthreshold Leakage = 0.16576 W
            Subthreshold Leakage with power gating = 0.055944 W
            Gate Leakage = 0.0614991 W
            Runtime Dynamic = 0.32449 W

          Complex ALUs (Mul/Div) (Count: 1 ):
            Area = 0.164805 mm^2
            Peak Dynamic = 0.0140168 W
            Subthreshold Leakage = 0.0463861 W
            Subthreshold Leakage with power gating = 0.0156553 W
            Gate Leakage = 0.0172098 W
            Runtime Dynamic = 0.207053 W

          Results Broadcast Bus:
            Area Overhead = 0.0245306 mm^2
            Peak Dynamic = 0.0481826 W
            Subthreshold Leakage = 0.0233657 W
            Subthreshold Leakage with power gating = 0.00788591 W
            Gate Leakage = 0.00866896 W
            Runtime Dynamic = 0.120014 W

*****************************************************************************************
Core:
      Area = 12.6963 mm^2
      Peak Dynamic = 7.74301 W
      Subthreshold Leakage = 1.14508 W
      Subthreshold Leakage with power gating = 0.431469 W
      Gate Leakage = 0.431123 W
      Runtime Dynamic = 1.36492 W

      Instruction Fetch Unit:
        Area = 3.04058 mm^2
        Peak Dynamic = 1.95375 W
        Subthreshold Leakage = 0.226888 W
        Subthreshold Leakage with power gating = 0.0933342 W
        Gate Leakage = 0.082348 W
        Runtime Dynamic = 0.115436 W

          Instruction Cache:
            Area = 1.60147 mm^2
            Peak Dynamic = 0.946317 W
            Subthreshold Leakage = 0.093335 W
            Subthreshold Leakage with power gating = 0.044301 W
            Gate Leakage = 0.042566 W
            Runtime Dynamic = 0.0535638 W

          Branch Target Buffer:
            Area = 0.397072 mm^2
            Peak Dynamic = 0.0840866 W
            Subthreshold Leakage = 0.02173 W
            Subthreshold Leakage with power gating = 0.0105914 W
            Gate Leakage = 0.00551055 W
            Runtime Dynamic = 0.00360141 W

          Branch Predictor:
            Area = 0.0686002 mm^2
            Peak Dynamic = 0.0275933 W
            Subthreshold Leakage = 0.00468696 W
            Subthreshold Leakage with power gating = 0.00225328 W
            Gate Leakage = 0.00101062 W
            Runtime Dynamic = 0.00125518 W

              Global Predictor:
                Area = 0.0218979 mm^2
                Peak Dynamic = 0.0077921 W
                Subthreshold Leakage = 0.00178236 W
                Subthreshold Leakage with power gating = 0.000855551 W
                Gate Leakage = 0.000370196 W
                Runtime Dynamic = 0.000363859 W

              Local Predictor:
              L1_Local Predictor:
                Area = 0.0128884 mm^2
                Peak Dynamic = 0.00653673 W
                Subthreshold Leakage = 0.000903617 W
                Subthreshold Leakage with power gating = 0.000433877 W
                Gate Leakage = 0.000207902 W
                Runtime Dynamic = 0.000314597 W

              L2_Local Predictor:
                Area = 0.00661857 mm^2
                Peak Dynamic = 0.00333484 W
                Subthreshold Leakage = 0.000457985 W
                Subthreshold Leakage with power gating = 0.00021904 W
                Gate Leakage = 0.000109414 W
                Runtime Dynamic = 0.000160511 W

              Chooser:
                Area = 0.0218979 mm^2
                Peak Dynamic = 0.0077921 W
                Subthreshold Leakage = 0.00178236 W
                Subthreshold Leakage with power gating = 0.000855551 W
                Gate Leakage = 0.000370196 W
                Runtime Dynamic = 0.000363859 W

              RAS:
                Area = 0.00529751 mm^2
                Peak Dynamic = 0.00547237 W
                Subthreshold Leakage = 0.000218626 W
                Subthreshold Leakage with power gating = 0.000108298 W
                Gate Leakage = 6.23254e-05 W
                Runtime Dynamic = 0.000212867 W

          Instruction Buffer:
            Area = 0.0111146 mm^2
            Peak Dynamic = 0.290305 W
            Subthreshold Leakage = 0.000365712 W
            Subthreshold Leakage with power gating = 0.000153616 W
            Gate Leakage = 9.42121e-05 W
            Runtime Dynamic = 0.0145264 W

          Instruction Decoder:
            Area = 0.939544 mm^2
            Peak Dynamic = 0.566091 W
            Subthreshold Leakage = 0.102165 W
            Subthreshold Leakage with power gating = 0.0344807 W
            Gate Leakage = 0.028867 W
            Runtime Dynamic = 0.0424895 W

      Renaming Unit:
        Area = 0.187354 mm^2
        Peak Dynamic = 2.14888 W
        Subthreshold Leakage = 0.0176949 W
        Subthreshold Leakage with power gating = 0.00901078 W
        Gate Leakage = 0.0121236 W
        Runtime Dynamic = 0.0684013 W

          Int Front End RAT:
            Area = 0.0583904 mm^2
            Peak Dynamic = 0.386173 W
            Subthreshold Leakage = 0.00151853 W
            Subthreshold Leakage with power gating = 0.000865565 W
            Gate Leakage = 0.000537576 W
            Runtime Dynamic = 0.0264933 W

          FP Front End RAT:
            Area = 0.0852001 mm^2
            Peak Dynamic = 1.61287 W
            Subthreshold Leakage = 0.0114141 W
            Subthreshold Leakage with power gating = 0.00650604 W
            Gate Leakage = 0.00723124 W
            Runtime Dynamic = 0.0386458 W

          Free List:
            Area = 0.0209802 mm^2
            Peak Dynamic = 0.0187401 W
            Subthreshold Leakage = 0.000157165 W
            Subthreshold Leakage with power gating = 8.49701e-05 W
            Gate Leakage = 5.50825e-05 W
            Runtime Dynamic = 0.0032622 W

      Load Store Unit:
        Area = 1.98568 mm^2
        Peak Dynamic = 0.953479 W
        Subthreshold Leakage = 0.0912613 W
        Subthreshold Leakage with power gating = 0.0480116 W
        Gate Leakage = 0.0319237 W
        Runtime Dynamic = 0.127773 W

          Data Cache:
            Area = 1.5316 mm^2
            Peak Dynamic = 0.907536 W
            Subthreshold Leakage = 0.0809419 W
            Subthreshold Leakage with power gating = 0.0432002 W
            Gate Leakage = 0.025643 W
            Runtime Dynamic = 0.0790112 W

          LoadQ:
            Area = 0.0430063 mm^2
            Peak Dynamic = 0.0135549 W
            Subthreshold Leakage = 0.00238113 W
            Subthreshold Leakage with power gating = 0.00135725 W
            Gate Leakage = 0.000855022 W
            Runtime Dynamic = 0.0135549 W

          StoreQ:
            Area = 0.0515274 mm^2
            Peak Dynamic = 0.0176032 W
            Subthreshold Leakage = 0.00333321 W
            Subthreshold Leakage with power gating = 0.00189993 W
            Gate Leakage = 0.00112608 W
            Runtime Dynamic = 0.0352064 W

      Memory Management Unit:
        Area = 0.100456 mm^2
        Peak Dynamic = 0.101591 W
        Subthreshold Leakage = 0.0106657 W
        Subthreshold Leakage with power gating = 0.00500875 W
        Gate Leakage = 0.0062802 W
        Runtime Dynamic = 0.0140151 W

          Itlb:
            Area = 0.0319967 mm^2
            Peak Dynamic = 0.017354 W
            Subthreshold Leakage = 0.00232604 W
            Subthreshold Leakage with power gating = 0.00132584 W
            Gate Leakage = 0.000775623 W
            Runtime Dynamic = 0.00258934 W

          Dtlb:
            Area = 0.0456762 mm^2
            Peak Dynamic = 0.0112989 W
            Subthreshold Leakage = 0.00373455 W
            Subthreshold Leakage with power gating = 0.00212869 W
            Gate Leakage = 0.00120491 W
            Runtime Dynamic = 0.0114257 W

      Execution Unit:
        Area = 4.30453 mm^2
        Peak Dynamic = 2.58531 W
        Subthreshold Leakage = 0.36545 W
        Subthreshold Leakage with power gating = 0.129924 W
        Gate Leakage = 0.137753 W
        Runtime Dynamic = 1.03929 W

          Register Files:
            Area = 0.293668 mm^2
            Peak Dynamic = 0.0303918 W
            Subthreshold Leakage = 0.00262543 W
            Subthreshold Leakage with power gating = 0.000992351 W
            Gate Leakage = 0.00090702 W
            Runtime Dynamic = 0.0175251 W

              Integer RF:
                Area = 0.186234 mm^2
                Peak Dynamic = 0.0192759 W
                Subthreshold Leakage = 0.00159167 W
                Subthreshold Leakage with power gating = 0.000581031 W
                Gate Leakage = 0.000571424 W
                Runtime Dynamic = 0.0154525 W

              Floating Point RF:
                Area = 0.107434 mm^2
                Peak Dynamic = 0.0111159 W
                Subthreshold Leakage = 0.00103377 W
                Subthreshold Leakage with power gating = 0.00041132 W
                Gate Leakage = 0.000335596 W
                Runtime Dynamic = 0.00207264 W

          Instruction Scheduler:
            Area = 1.11343 mm^2
            Peak Dynamic = 2.36434 W
            Subthreshold Leakage = 0.0299356 W
            Subthreshold Leakage with power gating = 0.0165819 W
            Gate Leakage = 0.0107484 W
            Runtime Dynamic = 0.222425 W

              Instruction Window:
                Area = 0.519531 mm^2
                Peak Dynamic = 1.01319 W
                Subthreshold Leakage = 0.0210861 W
                Subthreshold Leakage with power gating = 0.0119994 W
                Gate Leakage = 0.00784113 W
                Runtime Dynamic = 0.0995032 W

              FP Instruction Window:
                Area = 0.167689 mm^2
                Peak Dynamic = 0.592068 W
                Subthreshold Leakage = 0.00447456 W
                Subthreshold Leakage with power gating = 0.00253081 W
                Gate Leakage = 0.0017016 W
                Runtime Dynamic = 0.0577549 W

              ROB:
                Area = 0.426209 mm^2
                Peak Dynamic = 0.75908 W
                Subthreshold Leakage = 0.00437495 W
                Subthreshold Leakage with power gating = 0.0020517 W
                Gate Leakage = 0.00120572 W
                Runtime Dynamic = 0.0651672 W

          Integer ALUs (Count: 6 ):
            Area = 0.329609 mm^2
            Peak Dynamic = 0.0529947 W
            Subthreshold Leakage = 0.0927722 W
            Subthreshold Leakage with power gating = 0.0313106 W
            Gate Leakage = 0.0344197 W
            Runtime Dynamic = 0.147789 W

          Floating Point Units (FPUs) (Count: 2 ):
            Area = 2.35571 mm^2
            Peak Dynamic = 0.06987 W
            Subthreshold Leakage = 0.16576 W
            Subthreshold Leakage with power gating = 0.055944 W
            Gate Leakage = 0.0614991 W
            Runtime Dynamic = 0.32449 W

          Complex ALUs (Mul/Div) (Count: 1 ):
            Area = 0.164805 mm^2
            Peak Dynamic = 0.0140168 W
            Subthreshold Leakage = 0.0463861 W
            Subthreshold Leakage with power gating = 0.0156553 W
            Gate Leakage = 0.0172098 W
            Runtime Dynamic = 0.207053 W

          Results Broadcast Bus:
            Area Overhead = 0.0245306 mm^2
            Peak Dynamic = 0.0481826 W
            Subthreshold Leakage = 0.0233657 W
            Subthreshold Leakage with power gating = 0.00788591 W
            Gate Leakage = 0.00866896 W
            Runtime Dynamic = 0.120012 W

*****************************************************************************************
Core:
      Area = 12.6963 mm^2
      Peak Dynamic = 7.74296 W
      Subthreshold Leakage = 1.14508 W
      Subthreshold Leakage with power gating = 0.431469 W
      Gate Leakage = 0.431123 W
      Runtime Dynamic = 1.36498 W

      Instruction Fetch Unit:
        Area = 3.04058 mm^2
        Peak Dynamic = 1.95371 W
        Subthreshold Leakage = 0.226888 W
        Subthreshold Leakage with power gating = 0.0933342 W
        Gate Leakage = 0.082348 W
        Runtime Dynamic = 0.115422 W

          Instruction Cache:
            Area = 1.60147 mm^2
            Peak Dynamic = 0.946282 W
            Subthreshold Leakage = 0.093335 W
            Subthreshold Leakage with power gating = 0.044301 W
            Gate Leakage = 0.042566 W
            Runtime Dynamic = 0.0535525 W

          Branch Target Buffer:
            Area = 0.397072 mm^2
            Peak Dynamic = 0.0840866 W
            Subthreshold Leakage = 0.02173 W
            Subthreshold Leakage with power gating = 0.0105914 W
            Gate Leakage = 0.00551055 W
            Runtime Dynamic = 0.00360107 W

          Branch Predictor:
            Area = 0.0686002 mm^2
            Peak Dynamic = 0.0275933 W
            Subthreshold Leakage = 0.00468696 W
            Subthreshold Leakage with power gating = 0.00225328 W
            Gate Leakage = 0.00101062 W
            Runtime Dynamic = 0.00125505 W

              Global Predictor:
                Area = 0.0218979 mm^2
                Peak Dynamic = 0.0077921 W
                Subthreshold Leakage = 0.00178236 W
                Subthreshold Leakage with power gating = 0.000855551 W
                Gate Leakage = 0.000370196 W
                Runtime Dynamic = 0.000363817 W

              Local Predictor:
              L1_Local Predictor:
                Area = 0.0128884 mm^2
                Peak Dynamic = 0.00653673 W
                Subthreshold Leakage = 0.000903617 W
                Subthreshold Leakage with power gating = 0.000433877 W
                Gate Leakage = 0.000207902 W
                Runtime Dynamic = 0.00031456 W

              L2_Local Predictor:
                Area = 0.00661857 mm^2
                Peak Dynamic = 0.00333484 W
                Subthreshold Leakage = 0.000457985 W
                Subthreshold Leakage with power gating = 0.00021904 W
                Gate Leakage = 0.000109414 W
[...]
            Subthreshold Leakage = 0.0809419 W
            Subthreshold Leakage with power gating = 0.0432002 W
            Gate Leakage = 0.025643 W
            Runtime Dynamic = 0.0812304 W

          LoadQ:
            Area = 0.0430063 mm^2
            Peak Dynamic = 0.0135546 W
            Subthreshold Leakage = 0.00238113 W
            Subthreshold Leakage with power gating = 0.00135725 W
            Gate Leakage = 0.000855022 W
            Runtime Dynamic = 0.0135546 W

          StoreQ:
            Area = 0.0515274 mm^2
            Peak Dynamic = 0.0176029 W
            Subthreshold Leakage = 0.00333321 W
            Subthreshold Leakage with power gating = 0.00189993 W
            Gate Leakage = 0.00112608 W
            Runtime Dynamic = 0.0352057 W

      Memory Management Unit:
        Area = 0.100456 mm^2
        Peak Dynamic = 0.10159 W
        Subthreshold Leakage = 0.0106657 W
        Subthreshold Leakage with power gating = 0.00500875 W
        Gate Leakage = 0.0062802 W
        Runtime Dynamic = 0.0140731 W

          Itlb:
            Area = 0.0319967 mm^2
            Peak Dynamic = 0.0173533 W
            Subthreshold Leakage = 0.00232604 W
            Subthreshold Leakage with power gating = 0.00132584 W
            Gate Leakage = 0.000775623 W
            Runtime Dynamic = 0.00258905 W

          Dtlb:
            Area = 0.0456762 mm^2
            Peak Dynamic = 0.0112987 W
            Subthreshold Leakage = 0.00373455 W
            Subthreshold Leakage with power gating = 0.00212869 W
            Gate Leakage = 0.00120491 W
            Runtime Dynamic = 0.0114839 W

      Execution Unit:
        Area = 4.30453 mm^2
        Peak Dynamic = 2.5853 W
        Subthreshold Leakage = 0.36545 W
        Subthreshold Leakage with power gating = 0.129924 W
        Gate Leakage = 0.137753 W
        Runtime Dynamic = 1.03928 W

          Register Files:
            Area = 0.293668 mm^2
            Peak Dynamic = 0.0303909 W
            Subthreshold Leakage = 0.00262543 W
            Subthreshold Leakage with power gating = 0.000992351 W
            Gate Leakage = 0.00090702 W
            Runtime Dynamic = 0.0175243 W

              Integer RF:
                Area = 0.186234 mm^2
                Peak Dynamic = 0.019275 W
                Subthreshold Leakage = 0.00159167 W
                Subthreshold Leakage with power gating = 0.000581031 W
                Gate Leakage = 0.000571424 W
                Runtime Dynamic = 0.0154518 W

              Floating Point RF:
                Area = 0.107434 mm^2
                Peak Dynamic = 0.0111159 W
                Subthreshold Leakage = 0.00103377 W
                Subthreshold Leakage with power gating = 0.00041132 W
                Gate Leakage = 0.000335596 W
                Runtime Dynamic = 0.00207254 W

          Instruction Scheduler:
            Area = 1.11343 mm^2
            Peak Dynamic = 2.36434 W
            Subthreshold Leakage = 0.0299356 W
            Subthreshold Leakage with power gating = 0.0165819 W
            Gate Leakage = 0.0107484 W
            Runtime Dynamic = 0.222415 W

              Instruction Window:
                Area = 0.519531 mm^2
                Peak Dynamic = 1.01319 W
                Subthreshold Leakage = 0.0210861 W
                Subthreshold Leakage with power gating = 0.0119994 W
                Gate Leakage = 0.00784113 W
                Runtime Dynamic = 0.0994988 W

              FP Instruction Window:
                Area = 0.167689 mm^2
                Peak Dynamic = 0.592068 W
                Subthreshold Leakage = 0.00447456 W
                Subthreshold Leakage with power gating = 0.00253081 W
                Gate Leakage = 0.0017016 W
                Runtime Dynamic = 0.0577523 W

              ROB:
                Area = 0.426209 mm^2
                Peak Dynamic = 0.75908 W
                Subthreshold Leakage = 0.00437495 W
                Subthreshold Leakage with power gating = 0.0020517 W
                Gate Leakage = 0.00120572 W
                Runtime Dynamic = 0.0651643 W

          Integer ALUs (Count: 6 ):
            Area = 0.329609 mm^2
            Peak Dynamic = 0.0529909 W
            Subthreshold Leakage = 0.0927722 W
            Subthreshold Leakage with power gating = 0.0313106 W
            Gate Leakage = 0.0344197 W
            Runtime Dynamic = 0.147787 W

          Floating Point Units (FPUs) (Count: 2 ):
            Area = 2.35571 mm^2
            Peak Dynamic = 0.06987 W
            Subthreshold Leakage = 0.16576 W
            Subthreshold Leakage with power gating = 0.055944 W
            Gate Leakage = 0.0614991 W
            Runtime Dynamic = 0.32449 W

          Complex ALUs (Mul/Div) (Count: 1 ):
            Area = 0.164805 mm^2
            Peak Dynamic = 0.0140168 W
            Subthreshold Leakage = 0.0463861 W
            Subthreshold Leakage with power gating = 0.0156553 W
            Gate Leakage = 0.0172098 W
            Runtime Dynamic = 0.207053 W

          Results Broadcast Bus:
            Area Overhead = 0.0245306 mm^2
            Peak Dynamic = 0.0481805 W
            Subthreshold Leakage = 0.0233657 W
            Subthreshold Leakage with power gating = 0.00788591 W
            Gate Leakage = 0.00866896 W
            Runtime Dynamic = 0.120008 W

*****************************************************************************************
Core:
      Area = 12.6963 mm^2
      Peak Dynamic = 7.74298 W
      Subthreshold Leakage = 1.14508 W
      Subthreshold Leakage with power gating = 0.431469 W
      Gate Leakage = 0.431123 W
      Runtime Dynamic = 1.36724 W

      Instruction Fetch Unit:
        Area = 3.04058 mm^2
        Peak Dynamic = 1.95373 W
        Subthreshold Leakage = 0.226888 W
        Subthreshold Leakage with power gating = 0.0933342 W
        Gate Leakage = 0.082348 W
        Runtime Dynamic = 0.115429 W

          Instruction Cache:
            Area = 1.60147 mm^2
            Peak Dynamic = 0.946298 W
            Subthreshold Leakage = 0.093335 W
            Subthreshold Leakage with power gating = 0.044301 W
            Gate Leakage = 0.042566 W
            Runtime Dynamic = 0.0535582 W

          Branch Target Buffer:
            Area = 0.397072 mm^2
            Peak Dynamic = 0.0840866 W
            Subthreshold Leakage = 0.02173 W
            Subthreshold Leakage with power gating = 0.0105914 W
            Gate Leakage = 0.00551055 W
            Runtime Dynamic = 0.00360118 W

          Branch Predictor:
            Area = 0.0686002 mm^2
            Peak Dynamic = 0.0275933 W
            Subthreshold Leakage = 0.00468696 W
            Subthreshold Leakage with power gating = 0.00225328 W
            Gate Leakage = 0.00101062 W
            Runtime Dynamic = 0.00125509 W

              Global Predictor:
                Area = 0.0218979 mm^2
                Peak Dynamic = 0.0077921 W
                Subthreshold Leakage = 0.00178236 W
                Subthreshold Leakage with power gating = 0.000855551 W
                Gate Leakage = 0.000370196 W
                Runtime Dynamic = 0.000363831 W

              Local Predictor:
              L1_Local Predictor:
                Area = 0.0128884 mm^2
                Peak Dynamic = 0.00653673 W
                Subthreshold Leakage = 0.000903617 W
                Subthreshold Leakage with power gating = 0.000433877 W
                Gate Leakage = 0.000207902 W
                Runtime Dynamic = 0.000314572 W

              L2_Local Predictor:
                Area = 0.00661857 mm^2
                Peak Dynamic = 0.00333484 W
                Subthreshold Leakage = 0.000457985 W
                Subthreshold Leakage with power gating = 0.00021904 W
                Gate Leakage = 0.000109414 W
                Runtime Dynamic = 0.000160498 W

              Chooser:
                Area = 0.0218979 mm^2
                Peak Dynamic = 0.0077921 W
                Subthreshold Leakage = 0.00178236 W
                Subthreshold Leakage with power gating = 0.000855551 W
                Gate Leakage = 0.000370196 W
                Runtime Dynamic = 0.000363831 W

              RAS:
                Area = 0.00529751 mm^2
                Peak Dynamic = 0.00547237 W
                Subthreshold Leakage = 0.000218626 W
                Subthreshold Leakage with power gating = 0.000108298 W
                Gate Leakage = 6.23254e-05 W
                Runtime Dynamic = 0.00021286 W

          Instruction Buffer:
            Area = 0.0111146 mm^2
            Peak Dynamic = 0.290305 W
            Subthreshold Leakage = 0.000365712 W
            Subthreshold Leakage with power gating = 0.000153616 W
            Gate Leakage = 9.42121e-05 W
            Runtime Dynamic = 0.0145261 W

          Instruction Decoder:
            Area = 0.939544 mm^2
            Peak Dynamic = 0.566091 W
            Subthreshold Leakage = 0.102165 W
            Subthreshold Leakage with power gating = 0.0344807 W
            Gate Leakage = 0.028867 W
            Runtime Dynamic = 0.0424886 W

      Renaming Unit:
        Area = 0.187354 mm^2
        Peak Dynamic = 2.14888 W
        Subthreshold Leakage = 0.0176949 W
        Subthreshold Leakage with power gating = 0.00901078 W
        Gate Leakage = 0.0121236 W
        Runtime Dynamic = 0.0684007 W

          Int Front End RAT:
            Area = 0.0583904 mm^2
            Peak Dynamic = 0.386173 W
            Subthreshold Leakage = 0.00151853 W
            Subthreshold Leakage with power gating = 0.000865565 W
            Gate Leakage = 0.000537576 W
            Runtime Dynamic = 0.0264927 W

          FP Front End RAT:
            Area = 0.0852001 mm^2
            Peak Dynamic = 1.61287 W
            Subthreshold Leakage = 0.0114141 W
            Subthreshold Leakage with power gating = 0.00650604 W
            Gate Leakage = 0.00723124 W
            Runtime Dynamic = 0.0386458 W

          Free List:
            Area = 0.0209802 mm^2
            Peak Dynamic = 0.0187401 W
            Subthreshold Leakage = 0.000157165 W
            Subthreshold Leakage with power gating = 8.49701e-05 W
            Gate Leakage = 5.50825e-05 W
            Runtime Dynamic = 0.00326214 W

      Load Store Unit:
        Area = 1.98568 mm^2
        Peak Dynamic = 0.953476 W
        Subthreshold Leakage = 0.0912613 W
        Subthreshold Leakage with power gating = 0.0480116 W
        Gate Leakage = 0.0319237 W
        Runtime Dynamic = 0.130046 W

          Data Cache:
            Area = 1.5316 mm^2
            Peak Dynamic = 0.907534 W
            Subthreshold Leakage = 0.0809419 W
            Subthreshold Leakage with power gating = 0.0432002 W
            Gate Leakage = 0.025643 W
            Runtime Dynamic = 0.0812851 W

          LoadQ:
            Area = 0.0430063 mm^2
            Peak Dynamic = 0.0135548 W
            Subthreshold Leakage = 0.00238113 W
            Subthreshold Leakage with power gating = 0.00135725 W
            Gate Leakage = 0.000855022 W
            Runtime Dynamic = 0.0135547 W

          StoreQ:
            Area = 0.0515274 mm^2
            Peak Dynamic = 0.017603 W
            Subthreshold Leakage = 0.00333321 W
            Subthreshold Leakage with power gating = 0.00189993 W
            Gate Leakage = 0.00112608 W
            Runtime Dynamic = 0.035206 W

      Memory Management Unit:
        Area = 0.100456 mm^2
        Peak Dynamic = 0.10159 W
        Subthreshold Leakage = 0.0106657 W
        Subthreshold Leakage with power gating = 0.00500875 W
        Gate Leakage = 0.0062802 W
        Runtime Dynamic = 0.0140737 W

          Itlb:
            Area = 0.0319967 mm^2
            Peak Dynamic = 0.0173537 W
            Subthreshold Leakage = 0.00232604 W
            Subthreshold Leakage with power gating = 0.00132584 W
            Gate Leakage = 0.000775623 W
            Runtime Dynamic = 0.00258921 W

          Dtlb:
            Area = 0.0456762 mm^2
            Peak Dynamic = 0.0112988 W
            Subthreshold Leakage = 0.00373455 W
            Subthreshold Leakage with power gating = 0.00212869 W
            Gate Leakage = 0.00120491 W
            Runtime Dynamic = 0.0114844 W

      Execution Unit:
        Area = 4.30453 mm^2
        Peak Dynamic = 2.58531 W
        Subthreshold Leakage = 0.36545 W
        Subthreshold Leakage with power gating = 0.129924 W
        Gate Leakage = 0.137753 W
        Runtime Dynamic = 1.03929 W

          Register Files:
            Area = 0.293668 mm^2
            Peak Dynamic = 0.0303915 W
            Subthreshold Leakage = 0.00262543 W
            Subthreshold Leakage with power gating = 0.000992351 W
            Gate Leakage = 0.00090702 W
            Runtime Dynamic = 0.0175247 W

              Integer RF:
                Area = 0.186234 mm^2
                Peak Dynamic = 0.0192756 W
                Subthreshold Leakage = 0.00159167 W
                Subthreshold Leakage with power gating = 0.000581031 W
                Gate Leakage = 0.000571424 W
                Runtime Dynamic = 0.0154521 W

              Floating Point RF:
                Area = 0.107434 mm^2
                Peak Dynamic = 0.0111159 W
                Subthreshold Leakage = 0.00103377 W
                Subthreshold Leakage with power gating = 0.00041132 W
                Gate Leakage = 0.000335596 W
                Runtime Dynamic = 0.00207259 W

          Instruction Scheduler:
            Area = 1.11343 mm^2
            Peak Dynamic = 2.36434 W
            Subthreshold Leakage = 0.0299356 W
            Subthreshold Leakage with power gating = 0.0165819 W
            Gate Leakage = 0.0107484 W
            Runtime Dynamic = 0.222421 W

              Instruction Window:
                Area = 0.519531 mm^2
                Peak Dynamic = 1.01319 W
                Subthreshold Leakage = 0.0210861 W
                Subthreshold Leakage with power gating = 0.0119994 W
                Gate Leakage = 0.00784113 W
                Runtime Dynamic = 0.0995012 W

              FP Instruction Window:
                Area = 0.167689 mm^2
                Peak Dynamic = 0.592068 W
                Subthreshold Leakage = 0.00447456 W
                Subthreshold Leakage with power gating = 0.00253081 W
                Gate Leakage = 0.0017016 W
                Runtime Dynamic = 0.0577537 W

              ROB:
                Area = 0.426209 mm^2
                Peak Dynamic = 0.75908 W
                Subthreshold Leakage = 0.00437495 W
                Subthreshold Leakage with power gating = 0.0020517 W
                Gate Leakage = 0.00120572 W
                Runtime Dynamic = 0.0651659 W

          Integer ALUs (Count: 6 ):
            Area = 0.329609 mm^2
            Peak Dynamic = 0.0529934 W
            Subthreshold Leakage = 0.0927722 W
            Subthreshold Leakage with power gating = 0.0313106 W
            Gate Leakage = 0.0344197 W
            Runtime Dynamic = 0.147789 W

          Floating Point Units (FPUs) (Count: 2 ):
            Area = 2.35571 mm^2
            Peak Dynamic = 0.06987 W
            Subthreshold Leakage = 0.16576 W
            Subthreshold Leakage with power gating = 0.055944 W
            Gate Leakage = 0.0614991 W
            Runtime Dynamic = 0.32449 W

          Complex ALUs (Mul/Div) (Count: 1 ):
            Area = 0.164805 mm^2
            Peak Dynamic = 0.0140168 W
            Subthreshold Leakage = 0.0463861 W
            Subthreshold Leakage with power gating = 0.0156553 W
            Gate Leakage = 0.0172098 W
            Runtime Dynamic = 0.207053 W

          Results Broadcast Bus:
            Area Overhead = 0.0245306 mm^2
            Peak Dynamic = 0.0481819 W
            Subthreshold Leakage = 0.0233657 W
            Subthreshold Leakage with power gating = 0.00788591 W
            Gate Leakage = 0.00866896 W
            Runtime Dynamic = 0.12001 W

*****************************************************************************************
L2
      Area = 4.41404 mm^2
      Peak Dynamic = 0.0375158 W
      Subthreshold Leakage = 0.217773 W
      Subthreshold Leakage with power gating = 0.0978621 W
      Gate Leakage = 0.0294995 W
      Runtime Dynamic = 0.0172874 W

*****************************************************************************************
L2
      Area = 4.41404 mm^2
      Peak Dynamic = 0.0466435 W
      Subthreshold Leakage = 0.217773 W
      Subthreshold Leakage with power gating = 0.0978621 W
      Gate Leakage = 0.0294995 W
      Runtime Dynamic = 0.0210491 W

*****************************************************************************************
L2
      Area = 4.41404 mm^2
      Peak Dynamic = 0.0525565 W
      Subthreshold Leakage = 0.217773 W
      Subthreshold Leakage with power gating = 0.0978621 W
      Gate Leakage = 0.0294995 W
      Runtime Dynamic = 0.0227018 W

*****************************************************************************************
L2
      Area = 4.41404 mm^2
      Peak Dynamic = 0.0593784 W
      Subthreshold Leakage = 0.217773 W
      Subthreshold Leakage with power gating = 0.0978621 W
      Gate Leakage = 0.0294995 W
      Runtime Dynamic = 0.0259702 W

*****************************************************************************************
L2
      Area = 4.41404 mm^2
      Peak Dynamic = 0.0670678 W
      Subthreshold Leakage = 0.217773 W
      Subthreshold Leakage with power gating = 0.0978621 W
      Gate Leakage = 0.0294995 W
      Runtime Dynamic = 0.0310775 W

*****************************************************************************************
L2
      Area = 4.41404 mm^2
      Peak Dynamic = 0.0670806 W
      Subthreshold Leakage = 0.217773 W
      Subthreshold Leakage with power gating = 0.0978621 W
      Gate Leakage = 0.0294995 W
      Runtime Dynamic = 0.0310984 W

*****************************************************************************************
L2
      Area = 4.41404 mm^2
      Peak Dynamic = 0.0671061 W
      Subthreshold Leakage = 0.217773 W
      Subthreshold Leakage with power gating = 0.0978621 W
      Gate Leakage = 0.0294995 W
      Runtime Dynamic = 0.0311308 W

*****************************************************************************************
L2
      Area = 4.41404 mm^2
      Peak Dynamic = 0.065757 W
      Subthreshold Leakage = 0.217773 W
      Subthreshold Leakage with power gating = 0.0978621 W
      Gate Leakage = 0.0294995 W
      Runtime Dynamic = 0.030638 W

*****************************************************************************************
NOC
      Area = 0.0870126 mm^2
      Peak Dynamic = 0.0877398 W
      Subthreshold Leakage = 0.00149161 W
      Subthreshold Leakage with power gating = 0.000850216 W
      Gate Leakage = 0.00102695 W
      Runtime Dynamic = 0.134047 W

      Router: 
        Area = 0.0870126 mm^2
        Peak Dynamic = 0.0877398 W
        Subthreshold Leakage = 0.00149161 W
        Subthreshold Leakage with power gating = 0.000850216 W
        Gate Leakage = 0.00102695 W
        Runtime Dynamic = 0.134047 W

            Virtual Channel Buffer:
              Area = 0.0686472 mm^2
              Peak Dynamic = 0.0662538 W
              Subthreshold Leakage = 0.000593759 W
              Subthreshold Leakage with power gating = 0.000338443 W
              Gate Leakage = 0.000325423 W
              Runtime Dynamic = 0.101221 W

            Crossbar:
              Area = 0.00429497 mm^2
              Peak Dynamic = 0.0214171 W
              Subthreshold Leakage = 0.000897736 W
              Subthreshold Leakage with power gating = 0.00051171 W
              Gate Leakage = 0.00070146 W
              Runtime Dynamic = 0.0327205 W

            Arbiter:
              Peak Dynamic = 6.89567e-05 W
              Subthreshold Leakage = 1.12342e-07 W
              Subthreshold Leakage with power gating = 0.00051171 W
              Gate Leakage = 6.39245e-08 W
              Runtime Dynamic = 0.00010535 W

*****************************************************************************************
